
---------- Begin Simulation Statistics ----------
final_tick                               513633074500                       # Number of ticks from beginning of simulation (restored from checkpoints and never reset)
host_inst_rate                                 169991                       # Simulator instruction rate (inst/s)
host_mem_usage                                 686144                       # Number of bytes of host memory used
host_op_rate                                   313080                       # Simulator op (including micro ops) rate (op/s)
host_seconds                                   588.27                       # Real time elapsed on the host
host_tick_rate                              873127695                       # Simulator tick rate (ticks/s)
sim_freq                                 1000000000000                       # Frequency of simulated ticks
sim_insts                                   100000000                       # Number of instructions simulated
sim_ops                                     184174857                       # Number of ops (including micro ops) simulated
sim_seconds                                  0.513633                       # Number of seconds simulated
sim_ticks                                513633074500                       # Number of ticks simulated
system.cpu.branchPred.BTBCorrect                    0                       # Number of correct BTB predictions (this stat may not work properly.
system.cpu.branchPred.BTBHitPct             99.957087                       # BTB Hit Percentage
system.cpu.branchPred.BTBHits                10560998                       # Number of BTB hits
system.cpu.branchPred.BTBLookups             10565532                       # Number of BTB lookups
system.cpu.branchPred.RASInCorrect                  5                       # Number of incorrect RAS predictions.
system.cpu.branchPred.condIncorrect              1455                       # Number of conditional branches incorrect
system.cpu.branchPred.condPredicted          10562040                       # Number of conditional branches predicted
system.cpu.branchPred.indirectHits                 27                       # Number of indirect target hits.
system.cpu.branchPred.indirectLookups             194                       # Number of indirect predictor lookups.
system.cpu.branchPred.indirectMisses              167                       # Number of indirect misses.
system.cpu.branchPred.lookups                10570223                       # Number of BP lookups
system.cpu.branchPred.usedRAS                    2720                       # Number of times the RAS was used to get a target.
system.cpu.branchPredindirectMispredicted           99                       # Number of mispredicted indirect branches.
system.cpu.committedInsts                   100000000                       # Number of instructions committed
system.cpu.committedOps                     184174857                       # Number of ops (including micro ops) committed
system.cpu.cpi                              10.272661                       # CPI: cycles per instruction
system.cpu.discardedOps                          4281                       # Number of ops (including micro ops) which were discarded before commit
system.cpu.dtb.accesses                             0                       # DTB accesses
system.cpu.dtb.align_faults                         0                       # Number of TLB faults due to alignment restrictions
system.cpu.dtb.domain_faults                        0                       # Number of TLB faults due to domain restrictions
system.cpu.dtb.flush_entries                        0                       # Number of entries that have been flushed from TLB
system.cpu.dtb.flush_tlb                            0                       # Number of times complete TLB was flushed
system.cpu.dtb.flush_tlb_asid                       0                       # Number of times TLB was flushed by ASID
system.cpu.dtb.flush_tlb_mva                        0                       # Number of times TLB was flushed by MVA
system.cpu.dtb.flush_tlb_mva_asid                   0                       # Number of times TLB was flushed by MVA & ASID
system.cpu.dtb.hits                                 0                       # DTB hits
system.cpu.dtb.inst_accesses                        0                       # ITB inst accesses
system.cpu.dtb.inst_hits                            0                       # ITB inst hits
system.cpu.dtb.inst_misses                          0                       # ITB inst misses
system.cpu.dtb.misses                               0                       # DTB misses
system.cpu.dtb.perms_faults                         0                       # Number of TLB faults due to permissions restrictions
system.cpu.dtb.prefetch_faults                      0                       # Number of TLB faults due to prefetch
system.cpu.dtb.read_accesses                        0                       # DTB read accesses
system.cpu.dtb.read_hits                            0                       # DTB read hits
system.cpu.dtb.read_misses                          0                       # DTB read misses
system.cpu.dtb.stage2_mmu.stage2_tlb.accesses            0                       # DTB accesses
system.cpu.dtb.stage2_mmu.stage2_tlb.align_faults            0                       # Number of TLB faults due to alignment restrictions
system.cpu.dtb.stage2_mmu.stage2_tlb.domain_faults            0                       # Number of TLB faults due to domain restrictions
system.cpu.dtb.stage2_mmu.stage2_tlb.flush_entries            0                       # Number of entries that have been flushed from TLB
system.cpu.dtb.stage2_mmu.stage2_tlb.flush_tlb            0                       # Number of times complete TLB was flushed
system.cpu.dtb.stage2_mmu.stage2_tlb.flush_tlb_asid            0                       # Number of times TLB was flushed by ASID
system.cpu.dtb.stage2_mmu.stage2_tlb.flush_tlb_mva            0                       # Number of times TLB was flushed by MVA
system.cpu.dtb.stage2_mmu.stage2_tlb.flush_tlb_mva_asid            0                       # Number of times TLB was flushed by MVA & ASID
system.cpu.dtb.stage2_mmu.stage2_tlb.hits            0                       # DTB hits
system.cpu.dtb.stage2_mmu.stage2_tlb.inst_accesses            0                       # ITB inst accesses
system.cpu.dtb.stage2_mmu.stage2_tlb.inst_hits            0                       # ITB inst hits
system.cpu.dtb.stage2_mmu.stage2_tlb.inst_misses            0                       # ITB inst misses
system.cpu.dtb.stage2_mmu.stage2_tlb.misses            0                       # DTB misses
system.cpu.dtb.stage2_mmu.stage2_tlb.perms_faults            0                       # Number of TLB faults due to permissions restrictions
system.cpu.dtb.stage2_mmu.stage2_tlb.prefetch_faults            0                       # Number of TLB faults due to prefetch
system.cpu.dtb.stage2_mmu.stage2_tlb.read_accesses            0                       # DTB read accesses
system.cpu.dtb.stage2_mmu.stage2_tlb.read_hits            0                       # DTB read hits
system.cpu.dtb.stage2_mmu.stage2_tlb.read_misses            0                       # DTB read misses
system.cpu.dtb.stage2_mmu.stage2_tlb.walker.walkRequestOrigin_Requested::Data            0                       # Table walker requests started/completed, data/inst
system.cpu.dtb.stage2_mmu.stage2_tlb.walker.walkRequestOrigin_Requested::Inst            0                       # Table walker requests started/completed, data/inst
system.cpu.dtb.stage2_mmu.stage2_tlb.walker.walkRequestOrigin_Requested::total            0                       # Table walker requests started/completed, data/inst
system.cpu.dtb.stage2_mmu.stage2_tlb.walker.walkRequestOrigin_Completed::Data            0                       # Table walker requests started/completed, data/inst
system.cpu.dtb.stage2_mmu.stage2_tlb.walker.walkRequestOrigin_Completed::Inst            0                       # Table walker requests started/completed, data/inst
system.cpu.dtb.stage2_mmu.stage2_tlb.walker.walkRequestOrigin_Completed::total            0                       # Table walker requests started/completed, data/inst
system.cpu.dtb.stage2_mmu.stage2_tlb.walker.walkRequestOrigin::total            0                       # Table walker requests started/completed, data/inst
system.cpu.dtb.stage2_mmu.stage2_tlb.walker.walks            0                       # Table walker walks requested
system.cpu.dtb.stage2_mmu.stage2_tlb.write_accesses            0                       # DTB write accesses
system.cpu.dtb.stage2_mmu.stage2_tlb.write_hits            0                       # DTB write hits
system.cpu.dtb.stage2_mmu.stage2_tlb.write_misses            0                       # DTB write misses
system.cpu.dtb.walker.walkRequestOrigin_Requested::Data            0                       # Table walker requests started/completed, data/inst
system.cpu.dtb.walker.walkRequestOrigin_Requested::Inst            0                       # Table walker requests started/completed, data/inst
system.cpu.dtb.walker.walkRequestOrigin_Requested::total            0                       # Table walker requests started/completed, data/inst
system.cpu.dtb.walker.walkRequestOrigin_Completed::Data            0                       # Table walker requests started/completed, data/inst
system.cpu.dtb.walker.walkRequestOrigin_Completed::Inst            0                       # Table walker requests started/completed, data/inst
system.cpu.dtb.walker.walkRequestOrigin_Completed::total            0                       # Table walker requests started/completed, data/inst
system.cpu.dtb.walker.walkRequestOrigin::total            0                       # Table walker requests started/completed, data/inst
system.cpu.dtb.walker.walks                         0                       # Table walker walks requested
system.cpu.dtb.write_accesses                       0                       # DTB write accesses
system.cpu.dtb.write_hits                           0                       # DTB write hits
system.cpu.dtb.write_misses                         0                       # DTB write misses
system.cpu.fetch2.amo_instructions                  0                       # Number of memory atomic instructions successfully decoded
system.cpu.fetch2.fp_instructions                   0                       # Number of floating point instructions successfully decoded
system.cpu.fetch2.int_instructions           44894859                       # Number of integer instructions successfully decoded
system.cpu.fetch2.load_instructions           2086327                       # Number of memory load instructions successfully decoded
system.cpu.fetch2.store_instructions           169073                       # Number of memory store instructions successfully decoded
system.cpu.fetch2.vec_instructions                  0                       # Number of SIMD instructions successfully decoded
system.cpu.idleCycles                       806061340                       # Total number of cycles that the object has spent stopped
system.cpu.ipc                               0.097346                       # IPC: instructions per cycle
system.cpu.itb.accesses                             0                       # DTB accesses
system.cpu.itb.align_faults                         0                       # Number of TLB faults due to alignment restrictions
system.cpu.itb.domain_faults                        0                       # Number of TLB faults due to domain restrictions
system.cpu.itb.flush_entries                        0                       # Number of entries that have been flushed from TLB
system.cpu.itb.flush_tlb                            0                       # Number of times complete TLB was flushed
system.cpu.itb.flush_tlb_asid                       0                       # Number of times TLB was flushed by ASID
system.cpu.itb.flush_tlb_mva                        0                       # Number of times TLB was flushed by MVA
system.cpu.itb.flush_tlb_mva_asid                   0                       # Number of times TLB was flushed by MVA & ASID
system.cpu.itb.hits                                 0                       # DTB hits
system.cpu.itb.inst_accesses                        0                       # ITB inst accesses
system.cpu.itb.inst_hits                            0                       # ITB inst hits
system.cpu.itb.inst_misses                          0                       # ITB inst misses
system.cpu.itb.misses                               0                       # DTB misses
system.cpu.itb.perms_faults                         0                       # Number of TLB faults due to permissions restrictions
system.cpu.itb.prefetch_faults                      0                       # Number of TLB faults due to prefetch
system.cpu.itb.read_accesses                        0                       # DTB read accesses
system.cpu.itb.read_hits                            0                       # DTB read hits
system.cpu.itb.read_misses                          0                       # DTB read misses
system.cpu.itb.stage2_mmu.stage2_tlb.accesses            0                       # DTB accesses
system.cpu.itb.stage2_mmu.stage2_tlb.align_faults            0                       # Number of TLB faults due to alignment restrictions
system.cpu.itb.stage2_mmu.stage2_tlb.domain_faults            0                       # Number of TLB faults due to domain restrictions
system.cpu.itb.stage2_mmu.stage2_tlb.flush_entries            0                       # Number of entries that have been flushed from TLB
system.cpu.itb.stage2_mmu.stage2_tlb.flush_tlb            0                       # Number of times complete TLB was flushed
system.cpu.itb.stage2_mmu.stage2_tlb.flush_tlb_asid            0                       # Number of times TLB was flushed by ASID
system.cpu.itb.stage2_mmu.stage2_tlb.flush_tlb_mva            0                       # Number of times TLB was flushed by MVA
system.cpu.itb.stage2_mmu.stage2_tlb.flush_tlb_mva_asid            0                       # Number of times TLB was flushed by MVA & ASID
system.cpu.itb.stage2_mmu.stage2_tlb.hits            0                       # DTB hits
system.cpu.itb.stage2_mmu.stage2_tlb.inst_accesses            0                       # ITB inst accesses
system.cpu.itb.stage2_mmu.stage2_tlb.inst_hits            0                       # ITB inst hits
system.cpu.itb.stage2_mmu.stage2_tlb.inst_misses            0                       # ITB inst misses
system.cpu.itb.stage2_mmu.stage2_tlb.misses            0                       # DTB misses
system.cpu.itb.stage2_mmu.stage2_tlb.perms_faults            0                       # Number of TLB faults due to permissions restrictions
system.cpu.itb.stage2_mmu.stage2_tlb.prefetch_faults            0                       # Number of TLB faults due to prefetch
system.cpu.itb.stage2_mmu.stage2_tlb.read_accesses            0                       # DTB read accesses
system.cpu.itb.stage2_mmu.stage2_tlb.read_hits            0                       # DTB read hits
system.cpu.itb.stage2_mmu.stage2_tlb.read_misses            0                       # DTB read misses
system.cpu.itb.stage2_mmu.stage2_tlb.walker.walkRequestOrigin_Requested::Data            0                       # Table walker requests started/completed, data/inst
system.cpu.itb.stage2_mmu.stage2_tlb.walker.walkRequestOrigin_Requested::Inst            0                       # Table walker requests started/completed, data/inst
system.cpu.itb.stage2_mmu.stage2_tlb.walker.walkRequestOrigin_Requested::total            0                       # Table walker requests started/completed, data/inst
system.cpu.itb.stage2_mmu.stage2_tlb.walker.walkRequestOrigin_Completed::Data            0                       # Table walker requests started/completed, data/inst
system.cpu.itb.stage2_mmu.stage2_tlb.walker.walkRequestOrigin_Completed::Inst            0                       # Table walker requests started/completed, data/inst
system.cpu.itb.stage2_mmu.stage2_tlb.walker.walkRequestOrigin_Completed::total            0                       # Table walker requests started/completed, data/inst
system.cpu.itb.stage2_mmu.stage2_tlb.walker.walkRequestOrigin::total            0                       # Table walker requests started/completed, data/inst
system.cpu.itb.stage2_mmu.stage2_tlb.walker.walks            0                       # Table walker walks requested
system.cpu.itb.stage2_mmu.stage2_tlb.write_accesses            0                       # DTB write accesses
system.cpu.itb.stage2_mmu.stage2_tlb.write_hits            0                       # DTB write hits
system.cpu.itb.stage2_mmu.stage2_tlb.write_misses            0                       # DTB write misses
system.cpu.itb.walker.walkRequestOrigin_Requested::Data            0                       # Table walker requests started/completed, data/inst
system.cpu.itb.walker.walkRequestOrigin_Requested::Inst            0                       # Table walker requests started/completed, data/inst
system.cpu.itb.walker.walkRequestOrigin_Requested::total            0                       # Table walker requests started/completed, data/inst
system.cpu.itb.walker.walkRequestOrigin_Completed::Data            0                       # Table walker requests started/completed, data/inst
system.cpu.itb.walker.walkRequestOrigin_Completed::Inst            0                       # Table walker requests started/completed, data/inst
system.cpu.itb.walker.walkRequestOrigin_Completed::total            0                       # Table walker requests started/completed, data/inst
system.cpu.itb.walker.walkRequestOrigin::total            0                       # Table walker requests started/completed, data/inst
system.cpu.itb.walker.walks                         0                       # Table walker walks requested
system.cpu.itb.write_accesses                       0                       # DTB write accesses
system.cpu.itb.write_hits                           0                       # DTB write hits
system.cpu.itb.write_misses                         0                       # DTB write misses
system.cpu.numCycles                       1027266149                       # number of cpu cycles simulated
system.cpu.numFetchSuspends                         0                       # Number of times Execute suspended instruction fetching
system.cpu.numWorkItemsCompleted                    0                       # number of work items this cpu completed
system.cpu.numWorkItemsStarted                      0                       # number of work items this cpu started
system.cpu.op_class_0::No_OpClass                   0      0.00%      0.00% # Class of committed instruction
system.cpu.op_class_0::IntAlu                97640483     53.02%     53.02% # Class of committed instruction
system.cpu.op_class_0::IntMult                 114699      0.06%     53.08% # Class of committed instruction
system.cpu.op_class_0::IntDiv                       0      0.00%     53.08% # Class of committed instruction
system.cpu.op_class_0::FloatAdd                     0      0.00%     53.08% # Class of committed instruction
system.cpu.op_class_0::FloatCmp                     0      0.00%     53.08% # Class of committed instruction
system.cpu.op_class_0::FloatCvt                     0      0.00%     53.08% # Class of committed instruction
system.cpu.op_class_0::FloatMult                    0      0.00%     53.08% # Class of committed instruction
system.cpu.op_class_0::FloatMultAcc                 0      0.00%     53.08% # Class of committed instruction
system.cpu.op_class_0::FloatDiv                     0      0.00%     53.08% # Class of committed instruction
system.cpu.op_class_0::FloatMisc                    0      0.00%     53.08% # Class of committed instruction
system.cpu.op_class_0::FloatSqrt                    0      0.00%     53.08% # Class of committed instruction
system.cpu.op_class_0::SimdAdd                      8      0.00%     53.08% # Class of committed instruction
system.cpu.op_class_0::SimdAddAcc                   0      0.00%     53.08% # Class of committed instruction
system.cpu.op_class_0::SimdAlu                      8      0.00%     53.08% # Class of committed instruction
system.cpu.op_class_0::SimdCmp                      6      0.00%     53.08% # Class of committed instruction
system.cpu.op_class_0::SimdCvt                      0      0.00%     53.08% # Class of committed instruction
system.cpu.op_class_0::SimdMisc                     1      0.00%     53.08% # Class of committed instruction
system.cpu.op_class_0::SimdMult                     0      0.00%     53.08% # Class of committed instruction
system.cpu.op_class_0::SimdMultAcc                  0      0.00%     53.08% # Class of committed instruction
system.cpu.op_class_0::SimdShift                    0      0.00%     53.08% # Class of committed instruction
system.cpu.op_class_0::SimdShiftAcc                 0      0.00%     53.08% # Class of committed instruction
system.cpu.op_class_0::SimdDiv                      0      0.00%     53.08% # Class of committed instruction
system.cpu.op_class_0::SimdSqrt                     0      0.00%     53.08% # Class of committed instruction
system.cpu.op_class_0::SimdFloatAdd                 0      0.00%     53.08% # Class of committed instruction
system.cpu.op_class_0::SimdFloatAlu                 0      0.00%     53.08% # Class of committed instruction
system.cpu.op_class_0::SimdFloatCmp                 0      0.00%     53.08% # Class of committed instruction
system.cpu.op_class_0::SimdFloatCvt                 0      0.00%     53.08% # Class of committed instruction
system.cpu.op_class_0::SimdFloatDiv                 0      0.00%     53.08% # Class of committed instruction
system.cpu.op_class_0::SimdFloatMisc               23      0.00%     53.08% # Class of committed instruction
system.cpu.op_class_0::SimdFloatMult                0      0.00%     53.08% # Class of committed instruction
system.cpu.op_class_0::SimdFloatMultAcc             0      0.00%     53.08% # Class of committed instruction
system.cpu.op_class_0::SimdFloatSqrt                0      0.00%     53.08% # Class of committed instruction
system.cpu.op_class_0::SimdReduceAdd                0      0.00%     53.08% # Class of committed instruction
system.cpu.op_class_0::SimdReduceAlu                0      0.00%     53.08% # Class of committed instruction
system.cpu.op_class_0::SimdReduceCmp                0      0.00%     53.08% # Class of committed instruction
system.cpu.op_class_0::SimdFloatReduceAdd            0      0.00%     53.08% # Class of committed instruction
system.cpu.op_class_0::SimdFloatReduceCmp            0      0.00%     53.08% # Class of committed instruction
system.cpu.op_class_0::SimdAes                      0      0.00%     53.08% # Class of committed instruction
system.cpu.op_class_0::SimdAesMix                   0      0.00%     53.08% # Class of committed instruction
system.cpu.op_class_0::SimdSha1Hash                 0      0.00%     53.08% # Class of committed instruction
system.cpu.op_class_0::SimdSha1Hash2                0      0.00%     53.08% # Class of committed instruction
system.cpu.op_class_0::SimdSha256Hash               0      0.00%     53.08% # Class of committed instruction
system.cpu.op_class_0::SimdSha256Hash2              0      0.00%     53.08% # Class of committed instruction
system.cpu.op_class_0::SimdShaSigma2                0      0.00%     53.08% # Class of committed instruction
system.cpu.op_class_0::SimdShaSigma3                0      0.00%     53.08% # Class of committed instruction
system.cpu.op_class_0::SimdPredAlu                  0      0.00%     53.08% # Class of committed instruction
system.cpu.op_class_0::MemRead                2082677      1.13%     54.21% # Class of committed instruction
system.cpu.op_class_0::MemWrite              84336952     45.79%    100.00% # Class of committed instruction
system.cpu.op_class_0::FloatMemRead                 0      0.00%    100.00% # Class of committed instruction
system.cpu.op_class_0::FloatMemWrite                0      0.00%    100.00% # Class of committed instruction
system.cpu.op_class_0::IprAccess                    0      0.00%    100.00% # Class of committed instruction
system.cpu.op_class_0::InstPrefetch                 0      0.00%    100.00% # Class of committed instruction
system.cpu.op_class_0::total                184174857                       # Class of committed instruction
system.cpu.tickCycles                       221204809                       # Number of cycles that the object actually ticked
system.cpu.workload.numSyscalls                    18                       # Number of system calls
system.membus.snoop_filter.hit_multi_requests            0                       # Number of requests hitting in the snoop filter with multiple (>1) holders of the requested data.
system.membus.snoop_filter.hit_multi_snoops            0                       # Number of snoops hitting in the snoop filter with multiple (>1) holders of the requested data.
system.membus.snoop_filter.hit_single_requests      5255156                       # Number of requests hitting in the snoop filter with a single holder of the requested data.
system.membus.snoop_filter.hit_single_snoops            0                       # Number of snoops hitting in the snoop filter with a single holder of the requested data.
system.membus.snoop_filter.tot_requests      10519036                       # Total number of requests made to the snoop filter.
system.membus.snoop_filter.tot_snoops               0                       # Total number of snoops made to the snoop filter.
system.tol2bus.snoop_filter.hit_multi_requests           59                       # Number of requests hitting in the snoop filter with multiple (>1) holders of the requested data.
system.tol2bus.snoop_filter.hit_multi_snoops            0                       # Number of snoops hitting in the snoop filter with multiple (>1) holders of the requested data.
system.tol2bus.snoop_filter.hit_single_requests      5261396                       # Number of requests hitting in the snoop filter with a single holder of the requested data.
system.tol2bus.snoop_filter.hit_single_snoops          596                       # Number of snoops hitting in the snoop filter with a single holder of the requested data.
system.tol2bus.snoop_filter.tot_requests     10525386                       # Total number of requests made to the snoop filter.
system.tol2bus.snoop_filter.tot_snoops            596                       # Total number of snoops made to the snoop filter.
system.membus.pwrStateResidencyTicks::UNDEFINED 513633074500                       # Cumulative time (in ticks) in various power states
system.membus.trans_dist::ReadResp                868                       # Transaction distribution
system.membus.trans_dist::WritebackDirty      5254861                       # Transaction distribution
system.membus.trans_dist::CleanEvict              282                       # Transaction distribution
system.membus.trans_dist::ReadExReq           5263025                       # Transaction distribution
system.membus.trans_dist::ReadExResp          5263025                       # Transaction distribution
system.membus.trans_dist::ReadSharedReq           868                       # Transaction distribution
system.membus.pkt_count_system.l2.mem_side::system.mem_ctrls.port     15782929                       # Packet count per connected master and slave (bytes)
system.membus.pkt_count::total               15782929                       # Packet count per connected master and slave (bytes)
system.membus.pkt_size_system.l2.mem_side::system.mem_ctrls.port    673200256                       # Cumulative packet size per connected master and slave (bytes)
system.membus.pkt_size::total               673200256                       # Cumulative packet size per connected master and slave (bytes)
system.membus.snoops                                0                       # Total snoops (count)
system.membus.snoopTraffic                          0                       # Total snoop traffic (bytes)
system.membus.snoop_fanout::samples           5263893                       # Request fanout histogram
system.membus.snoop_fanout::mean                    0                       # Request fanout histogram
system.membus.snoop_fanout::stdev                   0                       # Request fanout histogram
system.membus.snoop_fanout::underflows              0      0.00%      0.00% # Request fanout histogram
system.membus.snoop_fanout::0                 5263893    100.00%    100.00% # Request fanout histogram
system.membus.snoop_fanout::1                       0      0.00%    100.00% # Request fanout histogram
system.membus.snoop_fanout::overflows               0      0.00%    100.00% # Request fanout histogram
system.membus.snoop_fanout::min_value               0                       # Request fanout histogram
system.membus.snoop_fanout::max_value               0                       # Request fanout histogram
system.membus.snoop_fanout::total             5263893                       # Request fanout histogram
system.membus.respLayer1.occupancy        27681412500                       # Layer occupancy (ticks)
system.membus.respLayer1.utilization              5.4                       # Layer utilization (%)
system.membus.reqLayer0.occupancy         31539082500                       # Layer occupancy (ticks)
system.membus.reqLayer0.utilization               6.1                       # Layer utilization (%)
system.tol2bus.pwrStateResidencyTicks::UNDEFINED 513633074500                       # Cumulative time (in ticks) in various power states
system.tol2bus.trans_dist::ReadResp               947                       # Transaction distribution
system.tol2bus.trans_dist::WritebackDirty     10515890                       # Transaction distribution
system.tol2bus.trans_dist::WritebackClean           67                       # Transaction distribution
system.tol2bus.trans_dist::CleanEvict            1178                       # Transaction distribution
system.tol2bus.trans_dist::ReadExReq          5263043                       # Transaction distribution
system.tol2bus.trans_dist::ReadExResp         5263042                       # Transaction distribution
system.tol2bus.trans_dist::ReadCleanReq           612                       # Transaction distribution
system.tol2bus.trans_dist::ReadSharedReq          335                       # Transaction distribution
system.tol2bus.pkt_count_system.cpu.icache.mem_side::system.l2.cpu_side         1291                       # Packet count per connected master and slave (bytes)
system.tol2bus.pkt_count_system.cpu.dcache.mem_side::system.l2.cpu_side     15788084                       # Packet count per connected master and slave (bytes)
system.tol2bus.pkt_count::total              15789375                       # Packet count per connected master and slave (bytes)
system.tol2bus.pkt_size_system.cpu.icache.mem_side::system.l2.cpu_side        43456                       # Cumulative packet size per connected master and slave (bytes)
system.tol2bus.pkt_size_system.cpu.dcache.mem_side::system.l2.cpu_side    673561984                       # Cumulative packet size per connected master and slave (bytes)
system.tol2bus.pkt_size::total              673605440                       # Cumulative packet size per connected master and slave (bytes)
system.tol2bus.snoops                         5255739                       # Total snoops (count)
system.tol2bus.snoopTraffic                 336311104                       # Total snoop traffic (bytes)
system.tol2bus.snoop_fanout::samples         10519729                       # Request fanout histogram
system.tol2bus.snoop_fanout::mean            0.000062                       # Request fanout histogram
system.tol2bus.snoop_fanout::stdev           0.007891                       # Request fanout histogram
system.tol2bus.snoop_fanout::underflows             0      0.00%      0.00% # Request fanout histogram
system.tol2bus.snoop_fanout::0               10519074     99.99%     99.99% # Request fanout histogram
system.tol2bus.snoop_fanout::1                    655      0.01%    100.00% # Request fanout histogram
system.tol2bus.snoop_fanout::2                      0      0.00%    100.00% # Request fanout histogram
system.tol2bus.snoop_fanout::overflows              0      0.00%    100.00% # Request fanout histogram
system.tol2bus.snoop_fanout::min_value              0                       # Request fanout histogram
system.tol2bus.snoop_fanout::max_value              1                       # Request fanout histogram
system.tol2bus.snoop_fanout::total           10519729                       # Request fanout histogram
system.tol2bus.reqLayer0.occupancy        10523789000                       # Layer occupancy (ticks)
system.tol2bus.reqLayer0.utilization              2.0                       # Layer utilization (%)
system.tol2bus.respLayer1.occupancy        7895067995                       # Layer occupancy (ticks)
system.tol2bus.respLayer1.utilization             1.5                       # Layer utilization (%)
system.tol2bus.respLayer0.occupancy            918998                       # Layer occupancy (ticks)
system.tol2bus.respLayer0.utilization             0.0                       # Layer utilization (%)
system.voltage_domain.voltage                       1                       # Voltage in Volts
system.clk_domain.clock                          1000                       # Clock period in ticks
system.l2.pwrStateResidencyTicks::UNDEFINED 513633074500                       # Cumulative time (in ticks) in various power states
system.l2.demand_hits::.cpu.inst                   27                       # number of demand (read+write) hits
system.l2.demand_hits::.cpu.data                   62                       # number of demand (read+write) hits
system.l2.demand_hits::total                       89                       # number of demand (read+write) hits
system.l2.overall_hits::.cpu.inst                  27                       # number of overall hits
system.l2.overall_hits::.cpu.data                  62                       # number of overall hits
system.l2.overall_hits::total                      89                       # number of overall hits
system.l2.demand_misses::.cpu.inst                585                       # number of demand (read+write) misses
system.l2.demand_misses::.cpu.data            5263316                       # number of demand (read+write) misses
system.l2.demand_misses::total                5263901                       # number of demand (read+write) misses
system.l2.overall_misses::.cpu.inst               585                       # number of overall misses
system.l2.overall_misses::.cpu.data           5263316                       # number of overall misses
system.l2.overall_misses::total               5263901                       # number of overall misses
system.l2.demand_miss_latency::.cpu.inst     46510000                       # number of demand (read+write) miss cycles
system.l2.demand_miss_latency::.cpu.data 424035311000                       # number of demand (read+write) miss cycles
system.l2.demand_miss_latency::total     424081821000                       # number of demand (read+write) miss cycles
system.l2.overall_miss_latency::.cpu.inst     46510000                       # number of overall miss cycles
system.l2.overall_miss_latency::.cpu.data 424035311000                       # number of overall miss cycles
system.l2.overall_miss_latency::total    424081821000                       # number of overall miss cycles
system.l2.demand_accesses::.cpu.inst              612                       # number of demand (read+write) accesses
system.l2.demand_accesses::.cpu.data          5263378                       # number of demand (read+write) accesses
system.l2.demand_accesses::total              5263990                       # number of demand (read+write) accesses
system.l2.overall_accesses::.cpu.inst             612                       # number of overall (read+write) accesses
system.l2.overall_accesses::.cpu.data         5263378                       # number of overall (read+write) accesses
system.l2.overall_accesses::total             5263990                       # number of overall (read+write) accesses
system.l2.demand_miss_rate::.cpu.inst        0.955882                       # miss rate for demand accesses
system.l2.demand_miss_rate::.cpu.data        0.999988                       # miss rate for demand accesses
system.l2.demand_miss_rate::total            0.999983                       # miss rate for demand accesses
system.l2.overall_miss_rate::.cpu.inst       0.955882                       # miss rate for overall accesses
system.l2.overall_miss_rate::.cpu.data       0.999988                       # miss rate for overall accesses
system.l2.overall_miss_rate::total           0.999983                       # miss rate for overall accesses
system.l2.demand_avg_miss_latency::.cpu.inst 79504.273504                       # average overall miss latency
system.l2.demand_avg_miss_latency::.cpu.data 80564.288939                       # average overall miss latency
system.l2.demand_avg_miss_latency::total 80564.171135                       # average overall miss latency
system.l2.overall_avg_miss_latency::.cpu.inst 79504.273504                       # average overall miss latency
system.l2.overall_avg_miss_latency::.cpu.data 80564.288939                       # average overall miss latency
system.l2.overall_avg_miss_latency::total 80564.171135                       # average overall miss latency
system.l2.blocked_cycles::no_mshrs                  0                       # number of cycles access was blocked
system.l2.blocked_cycles::no_targets                0                       # number of cycles access was blocked
system.l2.blocked::no_mshrs                         0                       # number of cycles access was blocked
system.l2.blocked::no_targets                       0                       # number of cycles access was blocked
system.l2.avg_blocked_cycles::no_mshrs            nan                       # average number of cycles each access was blocked
system.l2.avg_blocked_cycles::no_targets          nan                       # average number of cycles each access was blocked
system.l2.writebacks::.writebacks             5254861                       # number of writebacks
system.l2.writebacks::total                   5254861                       # number of writebacks
system.l2.demand_mshr_hits::.cpu.inst               2                       # number of demand (read+write) MSHR hits
system.l2.demand_mshr_hits::.cpu.data               5                       # number of demand (read+write) MSHR hits
system.l2.demand_mshr_hits::total                   7                       # number of demand (read+write) MSHR hits
system.l2.overall_mshr_hits::.cpu.inst              2                       # number of overall MSHR hits
system.l2.overall_mshr_hits::.cpu.data              5                       # number of overall MSHR hits
system.l2.overall_mshr_hits::total                  7                       # number of overall MSHR hits
system.l2.demand_mshr_misses::.cpu.inst           583                       # number of demand (read+write) MSHR misses
system.l2.demand_mshr_misses::.cpu.data       5263311                       # number of demand (read+write) MSHR misses
system.l2.demand_mshr_misses::total           5263894                       # number of demand (read+write) MSHR misses
system.l2.overall_mshr_misses::.cpu.inst          583                       # number of overall MSHR misses
system.l2.overall_mshr_misses::.cpu.data      5263311                       # number of overall MSHR misses
system.l2.overall_mshr_misses::total          5263894                       # number of overall MSHR misses
system.l2.demand_mshr_miss_latency::.cpu.inst     40532500                       # number of demand (read+write) MSHR miss cycles
system.l2.demand_mshr_miss_latency::.cpu.data 371401885500                       # number of demand (read+write) MSHR miss cycles
system.l2.demand_mshr_miss_latency::total 371442418000                       # number of demand (read+write) MSHR miss cycles
system.l2.overall_mshr_miss_latency::.cpu.inst     40532500                       # number of overall MSHR miss cycles
system.l2.overall_mshr_miss_latency::.cpu.data 371401885500                       # number of overall MSHR miss cycles
system.l2.overall_mshr_miss_latency::total 371442418000                       # number of overall MSHR miss cycles
system.l2.demand_mshr_miss_rate::.cpu.inst     0.952614                       # mshr miss rate for demand accesses
system.l2.demand_mshr_miss_rate::.cpu.data     0.999987                       # mshr miss rate for demand accesses
system.l2.demand_mshr_miss_rate::total       0.999982                       # mshr miss rate for demand accesses
system.l2.overall_mshr_miss_rate::.cpu.inst     0.952614                       # mshr miss rate for overall accesses
system.l2.overall_mshr_miss_rate::.cpu.data     0.999987                       # mshr miss rate for overall accesses
system.l2.overall_mshr_miss_rate::total      0.999982                       # mshr miss rate for overall accesses
system.l2.demand_avg_mshr_miss_latency::.cpu.inst 69524.013722                       # average overall mshr miss latency
system.l2.demand_avg_mshr_miss_latency::.cpu.data 70564.305529                       # average overall mshr miss latency
system.l2.demand_avg_mshr_miss_latency::total 70564.190312                       # average overall mshr miss latency
system.l2.overall_avg_mshr_miss_latency::.cpu.inst 69524.013722                       # average overall mshr miss latency
system.l2.overall_avg_mshr_miss_latency::.cpu.data 70564.305529                       # average overall mshr miss latency
system.l2.overall_avg_mshr_miss_latency::total 70564.190312                       # average overall mshr miss latency
system.l2.replacements                        5255739                       # number of replacements
system.l2.WritebackDirty_hits::.writebacks      5261029                       # number of WritebackDirty hits
system.l2.WritebackDirty_hits::total          5261029                       # number of WritebackDirty hits
system.l2.WritebackDirty_accesses::.writebacks      5261029                       # number of WritebackDirty accesses(hits+misses)
system.l2.WritebackDirty_accesses::total      5261029                       # number of WritebackDirty accesses(hits+misses)
system.l2.WritebackClean_hits::.writebacks           64                       # number of WritebackClean hits
system.l2.WritebackClean_hits::total               64                       # number of WritebackClean hits
system.l2.WritebackClean_accesses::.writebacks           64                       # number of WritebackClean accesses(hits+misses)
system.l2.WritebackClean_accesses::total           64                       # number of WritebackClean accesses(hits+misses)
system.l2.ReadExReq_hits::.cpu.data                17                       # number of ReadExReq hits
system.l2.ReadExReq_hits::total                    17                       # number of ReadExReq hits
system.l2.ReadExReq_misses::.cpu.data         5263026                       # number of ReadExReq misses
system.l2.ReadExReq_misses::total             5263026                       # number of ReadExReq misses
system.l2.ReadExReq_miss_latency::.cpu.data 424010524000                       # number of ReadExReq miss cycles
system.l2.ReadExReq_miss_latency::total  424010524000                       # number of ReadExReq miss cycles
system.l2.ReadExReq_accesses::.cpu.data       5263043                       # number of ReadExReq accesses(hits+misses)
system.l2.ReadExReq_accesses::total           5263043                       # number of ReadExReq accesses(hits+misses)
system.l2.ReadExReq_miss_rate::.cpu.data     0.999997                       # miss rate for ReadExReq accesses
system.l2.ReadExReq_miss_rate::total         0.999997                       # miss rate for ReadExReq accesses
system.l2.ReadExReq_avg_miss_latency::.cpu.data 80564.018494                       # average ReadExReq miss latency
system.l2.ReadExReq_avg_miss_latency::total 80564.018494                       # average ReadExReq miss latency
system.l2.ReadExReq_mshr_misses::.cpu.data      5263026                       # number of ReadExReq MSHR misses
system.l2.ReadExReq_mshr_misses::total        5263026                       # number of ReadExReq MSHR misses
system.l2.ReadExReq_mshr_miss_latency::.cpu.data 371380274000                       # number of ReadExReq MSHR miss cycles
system.l2.ReadExReq_mshr_miss_latency::total 371380274000                       # number of ReadExReq MSHR miss cycles
system.l2.ReadExReq_mshr_miss_rate::.cpu.data     0.999997                       # mshr miss rate for ReadExReq accesses
system.l2.ReadExReq_mshr_miss_rate::total     0.999997                       # mshr miss rate for ReadExReq accesses
system.l2.ReadExReq_avg_mshr_miss_latency::.cpu.data 70564.020394                       # average ReadExReq mshr miss latency
system.l2.ReadExReq_avg_mshr_miss_latency::total 70564.020394                       # average ReadExReq mshr miss latency
system.l2.ReadCleanReq_hits::.cpu.inst             27                       # number of ReadCleanReq hits
system.l2.ReadCleanReq_hits::total                 27                       # number of ReadCleanReq hits
system.l2.ReadCleanReq_misses::.cpu.inst          585                       # number of ReadCleanReq misses
system.l2.ReadCleanReq_misses::total              585                       # number of ReadCleanReq misses
system.l2.ReadCleanReq_miss_latency::.cpu.inst     46510000                       # number of ReadCleanReq miss cycles
system.l2.ReadCleanReq_miss_latency::total     46510000                       # number of ReadCleanReq miss cycles
system.l2.ReadCleanReq_accesses::.cpu.inst          612                       # number of ReadCleanReq accesses(hits+misses)
system.l2.ReadCleanReq_accesses::total            612                       # number of ReadCleanReq accesses(hits+misses)
system.l2.ReadCleanReq_miss_rate::.cpu.inst     0.955882                       # miss rate for ReadCleanReq accesses
system.l2.ReadCleanReq_miss_rate::total      0.955882                       # miss rate for ReadCleanReq accesses
system.l2.ReadCleanReq_avg_miss_latency::.cpu.inst 79504.273504                       # average ReadCleanReq miss latency
system.l2.ReadCleanReq_avg_miss_latency::total 79504.273504                       # average ReadCleanReq miss latency
system.l2.ReadCleanReq_mshr_hits::.cpu.inst            2                       # number of ReadCleanReq MSHR hits
system.l2.ReadCleanReq_mshr_hits::total             2                       # number of ReadCleanReq MSHR hits
system.l2.ReadCleanReq_mshr_misses::.cpu.inst          583                       # number of ReadCleanReq MSHR misses
system.l2.ReadCleanReq_mshr_misses::total          583                       # number of ReadCleanReq MSHR misses
system.l2.ReadCleanReq_mshr_miss_latency::.cpu.inst     40532500                       # number of ReadCleanReq MSHR miss cycles
system.l2.ReadCleanReq_mshr_miss_latency::total     40532500                       # number of ReadCleanReq MSHR miss cycles
system.l2.ReadCleanReq_mshr_miss_rate::.cpu.inst     0.952614                       # mshr miss rate for ReadCleanReq accesses
system.l2.ReadCleanReq_mshr_miss_rate::total     0.952614                       # mshr miss rate for ReadCleanReq accesses
system.l2.ReadCleanReq_avg_mshr_miss_latency::.cpu.inst 69524.013722                       # average ReadCleanReq mshr miss latency
system.l2.ReadCleanReq_avg_mshr_miss_latency::total 69524.013722                       # average ReadCleanReq mshr miss latency
system.l2.ReadSharedReq_hits::.cpu.data            45                       # number of ReadSharedReq hits
system.l2.ReadSharedReq_hits::total                45                       # number of ReadSharedReq hits
system.l2.ReadSharedReq_misses::.cpu.data          290                       # number of ReadSharedReq misses
system.l2.ReadSharedReq_misses::total             290                       # number of ReadSharedReq misses
system.l2.ReadSharedReq_miss_latency::.cpu.data     24787000                       # number of ReadSharedReq miss cycles
system.l2.ReadSharedReq_miss_latency::total     24787000                       # number of ReadSharedReq miss cycles
system.l2.ReadSharedReq_accesses::.cpu.data          335                       # number of ReadSharedReq accesses(hits+misses)
system.l2.ReadSharedReq_accesses::total           335                       # number of ReadSharedReq accesses(hits+misses)
system.l2.ReadSharedReq_miss_rate::.cpu.data     0.865672                       # miss rate for ReadSharedReq accesses
system.l2.ReadSharedReq_miss_rate::total     0.865672                       # miss rate for ReadSharedReq accesses
system.l2.ReadSharedReq_avg_miss_latency::.cpu.data 85472.413793                       # average ReadSharedReq miss latency
system.l2.ReadSharedReq_avg_miss_latency::total 85472.413793                       # average ReadSharedReq miss latency
system.l2.ReadSharedReq_mshr_hits::.cpu.data            5                       # number of ReadSharedReq MSHR hits
system.l2.ReadSharedReq_mshr_hits::total            5                       # number of ReadSharedReq MSHR hits
system.l2.ReadSharedReq_mshr_misses::.cpu.data          285                       # number of ReadSharedReq MSHR misses
system.l2.ReadSharedReq_mshr_misses::total          285                       # number of ReadSharedReq MSHR misses
system.l2.ReadSharedReq_mshr_miss_latency::.cpu.data     21611500                       # number of ReadSharedReq MSHR miss cycles
system.l2.ReadSharedReq_mshr_miss_latency::total     21611500                       # number of ReadSharedReq MSHR miss cycles
system.l2.ReadSharedReq_mshr_miss_rate::.cpu.data     0.850746                       # mshr miss rate for ReadSharedReq accesses
system.l2.ReadSharedReq_mshr_miss_rate::total     0.850746                       # mshr miss rate for ReadSharedReq accesses
system.l2.ReadSharedReq_avg_mshr_miss_latency::.cpu.data 75829.824561                       # average ReadSharedReq mshr miss latency
system.l2.ReadSharedReq_avg_mshr_miss_latency::total 75829.824561                       # average ReadSharedReq mshr miss latency
system.l2.tags.pwrStateResidencyTicks::UNDEFINED 513633074500                       # Cumulative time (in ticks) in various power states
system.l2.tags.tagsinuse                  8154.562027                       # Cycle average of tags in use
system.l2.tags.total_refs                    10525319                       # Total number of references to valid blocks.
system.l2.tags.sampled_refs                   5263931                       # Sample count of references to valid blocks.
system.l2.tags.avg_refs                      1.999517                       # Average number of references to valid blocks.
system.l2.tags.warmup_cycle                     77000                       # Cycle when the warmup percentage was hit.
system.l2.tags.occ_blocks::.writebacks       0.043086                       # Average occupied blocks per requestor
system.l2.tags.occ_blocks::.cpu.inst         2.563989                       # Average occupied blocks per requestor
system.l2.tags.occ_blocks::.cpu.data      8151.954952                       # Average occupied blocks per requestor
system.l2.tags.occ_percent::.writebacks      0.000005                       # Average percentage of cache occupancy
system.l2.tags.occ_percent::.cpu.inst        0.000313                       # Average percentage of cache occupancy
system.l2.tags.occ_percent::.cpu.data        0.995112                       # Average percentage of cache occupancy
system.l2.tags.occ_percent::total            0.995430                       # Average percentage of cache occupancy
system.l2.tags.occ_task_id_blocks::1024          8192                       # Occupied blocks per task id
system.l2.tags.age_task_id_blocks_1024::0          104                       # Occupied blocks per task id
system.l2.tags.age_task_id_blocks_1024::1          926                       # Occupied blocks per task id
system.l2.tags.age_task_id_blocks_1024::2         7162                       # Occupied blocks per task id
system.l2.tags.occ_task_id_percent::1024            1                       # Percentage of cache occupancy per task id
system.l2.tags.tag_accesses                  89466547                       # Number of tag accesses
system.l2.tags.data_accesses                 89466547                       # Number of data accesses
system.cpu_voltage_domain.voltage                   1                       # Voltage in Volts
system.mem_ctrls.pwrStateResidencyTicks::UNDEFINED 513633074500                       # Cumulative time (in ticks) in various power states
system.mem_ctrls.bytes_read::.cpu.inst          37312                       # Number of bytes read from this memory
system.mem_ctrls.bytes_read::.cpu.data      336851840                       # Number of bytes read from this memory
system.mem_ctrls.bytes_read::total          336889152                       # Number of bytes read from this memory
system.mem_ctrls.bytes_inst_read::.cpu.inst        37312                       # Number of instructions bytes read from this memory
system.mem_ctrls.bytes_inst_read::total         37312                       # Number of instructions bytes read from this memory
system.mem_ctrls.bytes_written::.writebacks    336311104                       # Number of bytes written to this memory
system.mem_ctrls.bytes_written::total       336311104                       # Number of bytes written to this memory
system.mem_ctrls.num_reads::.cpu.inst             583                       # Number of read requests responded to by this memory
system.mem_ctrls.num_reads::.cpu.data         5263310                       # Number of read requests responded to by this memory
system.mem_ctrls.num_reads::total             5263893                       # Number of read requests responded to by this memory
system.mem_ctrls.num_writes::.writebacks      5254861                       # Number of write requests responded to by this memory
system.mem_ctrls.num_writes::total            5254861                       # Number of write requests responded to by this memory
system.mem_ctrls.bw_read::.cpu.inst             72643                       # Total read bandwidth from this memory (bytes/s)
system.mem_ctrls.bw_read::.cpu.data         655821941                       # Total read bandwidth from this memory (bytes/s)
system.mem_ctrls.bw_read::total             655894585                       # Total read bandwidth from this memory (bytes/s)
system.mem_ctrls.bw_inst_read::.cpu.inst        72643                       # Instruction read bandwidth from this memory (bytes/s)
system.mem_ctrls.bw_inst_read::total            72643                       # Instruction read bandwidth from this memory (bytes/s)
system.mem_ctrls.bw_write::.writebacks      654769174                       # Write bandwidth from this memory (bytes/s)
system.mem_ctrls.bw_write::total            654769174                       # Write bandwidth from this memory (bytes/s)
system.mem_ctrls.bw_total::.writebacks      654769174                       # Total bandwidth to/from this memory (bytes/s)
system.mem_ctrls.bw_total::.cpu.inst            72643                       # Total bandwidth to/from this memory (bytes/s)
system.mem_ctrls.bw_total::.cpu.data        655821941                       # Total bandwidth to/from this memory (bytes/s)
system.mem_ctrls.bw_total::total           1310663759                       # Total bandwidth to/from this memory (bytes/s)
system.mem_ctrls.avgPriority_.writebacks::samples   5254861.00                       # Average QoS priority value for accepted requests
system.mem_ctrls.avgPriority_.cpu.inst::samples       583.00                       # Average QoS priority value for accepted requests
system.mem_ctrls.avgPriority_.cpu.data::samples   5263310.00                       # Average QoS priority value for accepted requests
system.mem_ctrls.priorityMinLatency      0.000000018750                       # per QoS priority minimum request to response latency (s)
system.mem_ctrls.priorityMaxLatency      0.000298318500                       # per QoS priority maximum request to response latency (s)
system.mem_ctrls.numReadWriteTurnArounds       328368                       # Number of turnarounds from READ to WRITE
system.mem_ctrls.numWriteReadTurnArounds       328369                       # Number of turnarounds from WRITE to READ
system.mem_ctrls.numStayReadState            15567924                       # Number of times bus staying in READ state
system.mem_ctrls.numStayWriteState            4943532                       # Number of times bus staying in WRITE state
system.mem_ctrls.readReqs                     5263893                       # Number of read requests accepted
system.mem_ctrls.writeReqs                    5254861                       # Number of write requests accepted
system.mem_ctrls.readBursts                   5263893                       # Number of DRAM read bursts, including those serviced by the write queue
system.mem_ctrls.writeBursts                  5254861                       # Number of DRAM write bursts, including those merged in the write queue
system.mem_ctrls.servicedByWrQ                      0                       # Number of DRAM read bursts serviced by the write queue
system.mem_ctrls.mergedWrBursts                     0                       # Number of DRAM write bursts merged with an existing one
system.mem_ctrls.neitherReadNorWriteReqs            0                       # Number of requests that are neither read nor write
system.mem_ctrls.perBankRdBursts::0            329032                       # Per bank write bursts
system.mem_ctrls.perBankRdBursts::1            329054                       # Per bank write bursts
system.mem_ctrls.perBankRdBursts::2            329094                       # Per bank write bursts
system.mem_ctrls.perBankRdBursts::3            329070                       # Per bank write bursts
system.mem_ctrls.perBankRdBursts::4            329023                       # Per bank write bursts
system.mem_ctrls.perBankRdBursts::5            329065                       # Per bank write bursts
system.mem_ctrls.perBankRdBursts::6            329081                       # Per bank write bursts
system.mem_ctrls.perBankRdBursts::7            328937                       # Per bank write bursts
system.mem_ctrls.perBankRdBursts::8            328898                       # Per bank write bursts
system.mem_ctrls.perBankRdBursts::9            328866                       # Per bank write bursts
system.mem_ctrls.perBankRdBursts::10           328834                       # Per bank write bursts
system.mem_ctrls.perBankRdBursts::11           329026                       # Per bank write bursts
system.mem_ctrls.perBankRdBursts::12           329023                       # Per bank write bursts
system.mem_ctrls.perBankRdBursts::13           329024                       # Per bank write bursts
system.mem_ctrls.perBankRdBursts::14           328988                       # Per bank write bursts
system.mem_ctrls.perBankRdBursts::15           328878                       # Per bank write bursts
system.mem_ctrls.perBankWrBursts::0            328393                       # Per bank write bursts
system.mem_ctrls.perBankWrBursts::1            328442                       # Per bank write bursts
system.mem_ctrls.perBankWrBursts::2            328540                       # Per bank write bursts
system.mem_ctrls.perBankWrBursts::3            328528                       # Per bank write bursts
system.mem_ctrls.perBankWrBursts::4            328505                       # Per bank write bursts
system.mem_ctrls.perBankWrBursts::5            328509                       # Per bank write bursts
system.mem_ctrls.perBankWrBursts::6            328522                       # Per bank write bursts
system.mem_ctrls.perBankWrBursts::7            328407                       # Per bank write bursts
system.mem_ctrls.perBankWrBursts::8            328320                       # Per bank write bursts
system.mem_ctrls.perBankWrBursts::9            328320                       # Per bank write bursts
system.mem_ctrls.perBankWrBursts::10           328250                       # Per bank write bursts
system.mem_ctrls.perBankWrBursts::11           328465                       # Per bank write bursts
system.mem_ctrls.perBankWrBursts::12           328466                       # Per bank write bursts
system.mem_ctrls.perBankWrBursts::13           328448                       # Per bank write bursts
system.mem_ctrls.perBankWrBursts::14           328385                       # Per bank write bursts
system.mem_ctrls.perBankWrBursts::15           328335                       # Per bank write bursts
system.mem_ctrls.avgRdQLen                       1.01                       # Average read queue length when enqueuing
system.mem_ctrls.avgWrQLen                      25.94                       # Average write queue length when enqueuing
system.mem_ctrls.totQLat                  58194113750                       # Total ticks spent queuing
system.mem_ctrls.totBusLat                26319465000                       # Total ticks spent in databus transfers
system.mem_ctrls.totMemAccLat            156892107500                       # Total ticks spent from burst creation until serviced by the DRAM
system.mem_ctrls.avgQLat                     11055.34                       # Average queueing delay per DRAM burst
system.mem_ctrls.avgBusLat                    5000.00                       # Average bus latency per DRAM burst
system.mem_ctrls.avgMemAccLat                29805.34                       # Average memory access latency per DRAM burst
system.mem_ctrls.numRdRetry                         0                       # Number of times read queue was full causing retry
system.mem_ctrls.numWrRetry                         0                       # Number of times write queue was full causing retry
system.mem_ctrls.readRowHits                  4838954                       # Number of row buffer hits during reads
system.mem_ctrls.writeRowHits                 4877924                       # Number of row buffer hits during writes
system.mem_ctrls.readRowHitRate                 91.93                       # Row buffer hit rate for reads
system.mem_ctrls.writeRowHitRate                92.83                       # Row buffer hit rate for writes
system.mem_ctrls.readPktSize::0                     0                       # Read request sizes (log2)
system.mem_ctrls.readPktSize::1                     0                       # Read request sizes (log2)
system.mem_ctrls.readPktSize::2                     0                       # Read request sizes (log2)
system.mem_ctrls.readPktSize::3                     0                       # Read request sizes (log2)
system.mem_ctrls.readPktSize::4                     0                       # Read request sizes (log2)
system.mem_ctrls.readPktSize::5                     0                       # Read request sizes (log2)
system.mem_ctrls.readPktSize::6               5263893                       # Read request sizes (log2)
system.mem_ctrls.writePktSize::0                    0                       # Write request sizes (log2)
system.mem_ctrls.writePktSize::1                    0                       # Write request sizes (log2)
system.mem_ctrls.writePktSize::2                    0                       # Write request sizes (log2)
system.mem_ctrls.writePktSize::3                    0                       # Write request sizes (log2)
system.mem_ctrls.writePktSize::4                    0                       # Write request sizes (log2)
system.mem_ctrls.writePktSize::5                    0                       # Write request sizes (log2)
system.mem_ctrls.writePktSize::6              5254861                       # Write request sizes (log2)
system.mem_ctrls.rdQLenPdf::0                 5262911                       # What read queue length does an incoming req see
system.mem_ctrls.rdQLenPdf::1                     955                       # What read queue length does an incoming req see
system.mem_ctrls.rdQLenPdf::2                      24                       # What read queue length does an incoming req see
system.mem_ctrls.rdQLenPdf::3                       2                       # What read queue length does an incoming req see
system.mem_ctrls.rdQLenPdf::4                       1                       # What read queue length does an incoming req see
system.mem_ctrls.rdQLenPdf::5                       0                       # What read queue length does an incoming req see
system.mem_ctrls.rdQLenPdf::6                       0                       # What read queue length does an incoming req see
system.mem_ctrls.rdQLenPdf::7                       0                       # What read queue length does an incoming req see
system.mem_ctrls.rdQLenPdf::8                       0                       # What read queue length does an incoming req see
system.mem_ctrls.rdQLenPdf::9                       0                       # What read queue length does an incoming req see
system.mem_ctrls.rdQLenPdf::10                      0                       # What read queue length does an incoming req see
system.mem_ctrls.rdQLenPdf::11                      0                       # What read queue length does an incoming req see
system.mem_ctrls.rdQLenPdf::12                      0                       # What read queue length does an incoming req see
system.mem_ctrls.rdQLenPdf::13                      0                       # What read queue length does an incoming req see
system.mem_ctrls.rdQLenPdf::14                      0                       # What read queue length does an incoming req see
system.mem_ctrls.rdQLenPdf::15                      0                       # What read queue length does an incoming req see
system.mem_ctrls.rdQLenPdf::16                      0                       # What read queue length does an incoming req see
system.mem_ctrls.rdQLenPdf::17                      0                       # What read queue length does an incoming req see
system.mem_ctrls.rdQLenPdf::18                      0                       # What read queue length does an incoming req see
system.mem_ctrls.rdQLenPdf::19                      0                       # What read queue length does an incoming req see
system.mem_ctrls.rdQLenPdf::20                      0                       # What read queue length does an incoming req see
system.mem_ctrls.rdQLenPdf::21                      0                       # What read queue length does an incoming req see
system.mem_ctrls.rdQLenPdf::22                      0                       # What read queue length does an incoming req see
system.mem_ctrls.rdQLenPdf::23                      0                       # What read queue length does an incoming req see
system.mem_ctrls.rdQLenPdf::24                      0                       # What read queue length does an incoming req see
system.mem_ctrls.rdQLenPdf::25                      0                       # What read queue length does an incoming req see
system.mem_ctrls.rdQLenPdf::26                      0                       # What read queue length does an incoming req see
system.mem_ctrls.rdQLenPdf::27                      0                       # What read queue length does an incoming req see
system.mem_ctrls.rdQLenPdf::28                      0                       # What read queue length does an incoming req see
system.mem_ctrls.rdQLenPdf::29                      0                       # What read queue length does an incoming req see
system.mem_ctrls.rdQLenPdf::30                      0                       # What read queue length does an incoming req see
system.mem_ctrls.rdQLenPdf::31                      0                       # What read queue length does an incoming req see
system.mem_ctrls.wrQLenPdf::0                       1                       # What write queue length does an incoming req see
system.mem_ctrls.wrQLenPdf::1                       1                       # What write queue length does an incoming req see
system.mem_ctrls.wrQLenPdf::2                       1                       # What write queue length does an incoming req see
system.mem_ctrls.wrQLenPdf::3                       1                       # What write queue length does an incoming req see
system.mem_ctrls.wrQLenPdf::4                       1                       # What write queue length does an incoming req see
system.mem_ctrls.wrQLenPdf::5                       1                       # What write queue length does an incoming req see
system.mem_ctrls.wrQLenPdf::6                       1                       # What write queue length does an incoming req see
system.mem_ctrls.wrQLenPdf::7                       1                       # What write queue length does an incoming req see
system.mem_ctrls.wrQLenPdf::8                       1                       # What write queue length does an incoming req see
system.mem_ctrls.wrQLenPdf::9                       1                       # What write queue length does an incoming req see
system.mem_ctrls.wrQLenPdf::10                      1                       # What write queue length does an incoming req see
system.mem_ctrls.wrQLenPdf::11                      1                       # What write queue length does an incoming req see
system.mem_ctrls.wrQLenPdf::12                      1                       # What write queue length does an incoming req see
system.mem_ctrls.wrQLenPdf::13                      1                       # What write queue length does an incoming req see
system.mem_ctrls.wrQLenPdf::14                      1                       # What write queue length does an incoming req see
system.mem_ctrls.wrQLenPdf::15                    309                       # What write queue length does an incoming req see
system.mem_ctrls.wrQLenPdf::16                    319                       # What write queue length does an incoming req see
system.mem_ctrls.wrQLenPdf::17                 324928                       # What write queue length does an incoming req see
system.mem_ctrls.wrQLenPdf::18                 328370                       # What write queue length does an incoming req see
system.mem_ctrls.wrQLenPdf::19                 328369                       # What write queue length does an incoming req see
system.mem_ctrls.wrQLenPdf::20                 328369                       # What write queue length does an incoming req see
system.mem_ctrls.wrQLenPdf::21                 328370                       # What write queue length does an incoming req see
system.mem_ctrls.wrQLenPdf::22                 328369                       # What write queue length does an incoming req see
system.mem_ctrls.wrQLenPdf::23                 328388                       # What write queue length does an incoming req see
system.mem_ctrls.wrQLenPdf::24                 328371                       # What write queue length does an incoming req see
system.mem_ctrls.wrQLenPdf::25                 332096                       # What write queue length does an incoming req see
system.mem_ctrls.wrQLenPdf::26                 328372                       # What write queue length does an incoming req see
system.mem_ctrls.wrQLenPdf::27                 328370                       # What write queue length does an incoming req see
system.mem_ctrls.wrQLenPdf::28                 328369                       # What write queue length does an incoming req see
system.mem_ctrls.wrQLenPdf::29                 328370                       # What write queue length does an incoming req see
system.mem_ctrls.wrQLenPdf::30                 328369                       # What write queue length does an incoming req see
system.mem_ctrls.wrQLenPdf::31                 328369                       # What write queue length does an incoming req see
system.mem_ctrls.wrQLenPdf::32                 328369                       # What write queue length does an incoming req see
system.mem_ctrls.wrQLenPdf::33                      0                       # What write queue length does an incoming req see
system.mem_ctrls.wrQLenPdf::34                      0                       # What write queue length does an incoming req see
system.mem_ctrls.wrQLenPdf::35                      0                       # What write queue length does an incoming req see
system.mem_ctrls.wrQLenPdf::36                      0                       # What write queue length does an incoming req see
system.mem_ctrls.wrQLenPdf::37                      0                       # What write queue length does an incoming req see
system.mem_ctrls.wrQLenPdf::38                      0                       # What write queue length does an incoming req see
system.mem_ctrls.wrQLenPdf::39                      0                       # What write queue length does an incoming req see
system.mem_ctrls.wrQLenPdf::40                      0                       # What write queue length does an incoming req see
system.mem_ctrls.wrQLenPdf::41                      0                       # What write queue length does an incoming req see
system.mem_ctrls.wrQLenPdf::42                      0                       # What write queue length does an incoming req see
system.mem_ctrls.wrQLenPdf::43                      0                       # What write queue length does an incoming req see
system.mem_ctrls.wrQLenPdf::44                      0                       # What write queue length does an incoming req see
system.mem_ctrls.wrQLenPdf::45                      0                       # What write queue length does an incoming req see
system.mem_ctrls.wrQLenPdf::46                      0                       # What write queue length does an incoming req see
system.mem_ctrls.wrQLenPdf::47                      0                       # What write queue length does an incoming req see
system.mem_ctrls.wrQLenPdf::48                      0                       # What write queue length does an incoming req see
system.mem_ctrls.wrQLenPdf::49                      0                       # What write queue length does an incoming req see
system.mem_ctrls.wrQLenPdf::50                      0                       # What write queue length does an incoming req see
system.mem_ctrls.wrQLenPdf::51                      0                       # What write queue length does an incoming req see
system.mem_ctrls.wrQLenPdf::52                      0                       # What write queue length does an incoming req see
system.mem_ctrls.wrQLenPdf::53                      0                       # What write queue length does an incoming req see
system.mem_ctrls.wrQLenPdf::54                      0                       # What write queue length does an incoming req see
system.mem_ctrls.wrQLenPdf::55                      0                       # What write queue length does an incoming req see
system.mem_ctrls.wrQLenPdf::56                      0                       # What write queue length does an incoming req see
system.mem_ctrls.wrQLenPdf::57                      0                       # What write queue length does an incoming req see
system.mem_ctrls.wrQLenPdf::58                      0                       # What write queue length does an incoming req see
system.mem_ctrls.wrQLenPdf::59                      0                       # What write queue length does an incoming req see
system.mem_ctrls.wrQLenPdf::60                      0                       # What write queue length does an incoming req see
system.mem_ctrls.wrQLenPdf::61                      0                       # What write queue length does an incoming req see
system.mem_ctrls.wrQLenPdf::62                      0                       # What write queue length does an incoming req see
system.mem_ctrls.wrQLenPdf::63                      0                       # What write queue length does an incoming req see
system.mem_ctrls.bytesPerActivate::samples       801849                       # Bytes accessed per row activation
system.mem_ctrls.bytesPerActivate::mean    839.557253                       # Bytes accessed per row activation
system.mem_ctrls.bytesPerActivate::gmean   749.904648                       # Bytes accessed per row activation
system.mem_ctrls.bytesPerActivate::stdev   287.740762                       # Bytes accessed per row activation
system.mem_ctrls.bytesPerActivate::0-127        15215      1.90%      1.90% # Bytes accessed per row activation
system.mem_ctrls.bytesPerActivate::128-255        25225      3.15%      5.04% # Bytes accessed per row activation
system.mem_ctrls.bytesPerActivate::256-383        37218      4.64%      9.68% # Bytes accessed per row activation
system.mem_ctrls.bytesPerActivate::384-511        45351      5.66%     15.34% # Bytes accessed per row activation
system.mem_ctrls.bytesPerActivate::512-639        75907      9.47%     24.81% # Bytes accessed per row activation
system.mem_ctrls.bytesPerActivate::640-767        32066      4.00%     28.81% # Bytes accessed per row activation
system.mem_ctrls.bytesPerActivate::768-895        26575      3.31%     32.12% # Bytes accessed per row activation
system.mem_ctrls.bytesPerActivate::896-1023        21394      2.67%     34.79% # Bytes accessed per row activation
system.mem_ctrls.bytesPerActivate::1024-1151       522898     65.21%    100.00% # Bytes accessed per row activation
system.mem_ctrls.bytesPerActivate::total       801849                       # Bytes accessed per row activation
system.mem_ctrls.rdPerTurnAround::samples       328369                       # Reads before turning the bus around for writes
system.mem_ctrls.rdPerTurnAround::mean      16.030420                       # Reads before turning the bus around for writes
system.mem_ctrls.rdPerTurnAround::gmean     16.004987                       # Reads before turning the bus around for writes
system.mem_ctrls.rdPerTurnAround::stdev     12.386995                       # Reads before turning the bus around for writes
system.mem_ctrls.rdPerTurnAround::0-255        328366    100.00%    100.00% # Reads before turning the bus around for writes
system.mem_ctrls.rdPerTurnAround::256-511            2      0.00%    100.00% # Reads before turning the bus around for writes
system.mem_ctrls.rdPerTurnAround::6912-7167            1      0.00%    100.00% # Reads before turning the bus around for writes
system.mem_ctrls.rdPerTurnAround::total        328369                       # Reads before turning the bus around for writes
system.mem_ctrls.wrPerTurnAround::samples       328368                       # Writes before turning the bus around for reads
system.mem_ctrls.wrPerTurnAround::mean      16.002863                       # Writes before turning the bus around for reads
system.mem_ctrls.wrPerTurnAround::gmean     16.002626                       # Writes before turning the bus around for reads
[...]
system.cpu.icache.ReadReq_miss_rate::total     0.000019                       # miss rate for ReadReq accesses
system.cpu.icache.ReadReq_avg_miss_latency::.cpu.inst 78998.366013                       # average ReadReq miss latency
system.cpu.icache.ReadReq_avg_miss_latency::total 78998.366013                       # average ReadReq miss latency
system.cpu.icache.ReadReq_mshr_misses::.cpu.inst          612                       # number of ReadReq MSHR misses
system.cpu.icache.ReadReq_mshr_misses::total          612                       # number of ReadReq MSHR misses
system.cpu.icache.ReadReq_mshr_miss_latency::.cpu.inst     47735000                       # number of ReadReq MSHR miss cycles
system.cpu.icache.ReadReq_mshr_miss_latency::total     47735000                       # number of ReadReq MSHR miss cycles
system.cpu.icache.ReadReq_mshr_miss_rate::.cpu.inst     0.000019                       # mshr miss rate for ReadReq accesses
system.cpu.icache.ReadReq_mshr_miss_rate::total     0.000019                       # mshr miss rate for ReadReq accesses
system.cpu.icache.ReadReq_avg_mshr_miss_latency::.cpu.inst 77998.366013                       # average ReadReq mshr miss latency
system.cpu.icache.ReadReq_avg_mshr_miss_latency::total 77998.366013                       # average ReadReq mshr miss latency
system.cpu.icache.tags.pwrStateResidencyTicks::UNDEFINED 513633074500                       # Cumulative time (in ticks) in various power states
system.cpu.icache.tags.tagsinuse           465.161027                       # Cycle average of tags in use
system.cpu.icache.tags.total_refs            31870368                       # Total number of references to valid blocks.
system.cpu.icache.tags.sampled_refs               612                       # Sample count of references to valid blocks.
system.cpu.icache.tags.avg_refs          52075.764706                       # Average number of references to valid blocks.
system.cpu.icache.tags.warmup_cycle             87500                       # Cycle when the warmup percentage was hit.
system.cpu.icache.tags.occ_blocks::.cpu.inst   465.161027                       # Average occupied blocks per requestor
system.cpu.icache.tags.occ_percent::.cpu.inst     0.454259                       # Average percentage of cache occupancy
system.cpu.icache.tags.occ_percent::total     0.454259                       # Average percentage of cache occupancy
system.cpu.icache.tags.occ_task_id_blocks::1024          545                       # Occupied blocks per task id
system.cpu.icache.tags.age_task_id_blocks_1024::4          545                       # Occupied blocks per task id
system.cpu.icache.tags.occ_task_id_percent::1024     0.532227                       # Percentage of cache occupancy per task id
system.cpu.icache.tags.tag_accesses          63741348                       # Number of tag accesses
system.cpu.icache.tags.data_accesses         63741348                       # Number of data accesses
system.cpu.dtb.walker.pwrStateResidencyTicks::UNDEFINED 513633074500                       # Cumulative time (in ticks) in various power states
system.cpu.dtb.stage2_mmu.stage2_tlb.walker.pwrStateResidencyTicks::UNDEFINED 513633074500                       # Cumulative time (in ticks) in various power states
system.cpu.dcache.pwrStateResidencyTicks::UNDEFINED 513633074500                       # Cumulative time (in ticks) in various power states
system.cpu.dcache.demand_hits::.cpu.data     75856931                       # number of demand (read+write) hits
system.cpu.dcache.demand_hits::total         75856931                       # number of demand (read+write) hits
system.cpu.dcache.overall_hits::.cpu.data     75856962                       # number of overall hits
system.cpu.dcache.overall_hits::total        75856962                       # number of overall hits
system.cpu.dcache.demand_misses::.cpu.data     10523798                       # number of demand (read+write) misses
system.cpu.dcache.demand_misses::total       10523798                       # number of demand (read+write) misses
system.cpu.dcache.overall_misses::.cpu.data     10523838                       # number of overall misses
system.cpu.dcache.overall_misses::total      10523838                       # number of overall misses
system.cpu.dcache.demand_miss_latency::.cpu.data 876763977499                       # number of demand (read+write) miss cycles
system.cpu.dcache.demand_miss_latency::total 876763977499                       # number of demand (read+write) miss cycles
system.cpu.dcache.overall_miss_latency::.cpu.data 876763977499                       # number of overall miss cycles
system.cpu.dcache.overall_miss_latency::total 876763977499                       # number of overall miss cycles
system.cpu.dcache.demand_accesses::.cpu.data     86380729                       # number of demand (read+write) accesses
system.cpu.dcache.demand_accesses::total     86380729                       # number of demand (read+write) accesses
system.cpu.dcache.overall_accesses::.cpu.data     86380800                       # number of overall (read+write) accesses
system.cpu.dcache.overall_accesses::total     86380800                       # number of overall (read+write) accesses
system.cpu.dcache.demand_miss_rate::.cpu.data     0.121830                       # miss rate for demand accesses
system.cpu.dcache.demand_miss_rate::total     0.121830                       # miss rate for demand accesses
system.cpu.dcache.overall_miss_rate::.cpu.data     0.121831                       # miss rate for overall accesses
system.cpu.dcache.overall_miss_rate::total     0.121831                       # miss rate for overall accesses
system.cpu.dcache.demand_avg_miss_latency::.cpu.data 83312.505381                       # average overall miss latency
system.cpu.dcache.demand_avg_miss_latency::total 83312.505381                       # average overall miss latency
system.cpu.dcache.overall_avg_miss_latency::.cpu.data 83312.188719                       # average overall miss latency
system.cpu.dcache.overall_avg_miss_latency::total 83312.188719                       # average overall miss latency
system.cpu.dcache.blocked_cycles::no_mshrs          333                       # number of cycles access was blocked
system.cpu.dcache.blocked_cycles::no_targets            0                       # number of cycles access was blocked
system.cpu.dcache.blocked::no_mshrs                 5                       # number of cycles access was blocked
system.cpu.dcache.blocked::no_targets               0                       # number of cycles access was blocked
system.cpu.dcache.avg_blocked_cycles::no_mshrs    66.600000                       # average number of cycles each access was blocked
system.cpu.dcache.avg_blocked_cycles::no_targets          nan                       # average number of cycles each access was blocked
system.cpu.dcache.writebacks::.writebacks      5261029                       # number of writebacks
system.cpu.dcache.writebacks::total           5261029                       # number of writebacks
system.cpu.dcache.demand_mshr_hits::.cpu.data      5260453                       # number of demand (read+write) MSHR hits
system.cpu.dcache.demand_mshr_hits::total      5260453                       # number of demand (read+write) MSHR hits
system.cpu.dcache.overall_mshr_hits::.cpu.data      5260453                       # number of overall MSHR hits
system.cpu.dcache.overall_mshr_hits::total      5260453                       # number of overall MSHR hits
system.cpu.dcache.demand_mshr_misses::.cpu.data      5263345                       # number of demand (read+write) MSHR misses
system.cpu.dcache.demand_mshr_misses::total      5263345                       # number of demand (read+write) MSHR misses
system.cpu.dcache.overall_mshr_misses::.cpu.data      5263378                       # number of overall MSHR misses
system.cpu.dcache.overall_mshr_misses::total      5263378                       # number of overall MSHR misses
system.cpu.dcache.demand_mshr_miss_latency::.cpu.data 431928499500                       # number of demand (read+write) MSHR miss cycles
system.cpu.dcache.demand_mshr_miss_latency::total 431928499500                       # number of demand (read+write) MSHR miss cycles
system.cpu.dcache.overall_mshr_miss_latency::.cpu.data 431931052500                       # number of overall MSHR miss cycles
system.cpu.dcache.overall_mshr_miss_latency::total 431931052500                       # number of overall MSHR miss cycles
system.cpu.dcache.demand_mshr_miss_rate::.cpu.data     0.060932                       # mshr miss rate for demand accesses
system.cpu.dcache.demand_mshr_miss_rate::total     0.060932                       # mshr miss rate for demand accesses
system.cpu.dcache.overall_mshr_miss_rate::.cpu.data     0.060932                       # mshr miss rate for overall accesses
system.cpu.dcache.overall_mshr_miss_rate::total     0.060932                       # mshr miss rate for overall accesses
system.cpu.dcache.demand_avg_mshr_miss_latency::.cpu.data 82063.497548                       # average overall mshr miss latency
system.cpu.dcache.demand_avg_mshr_miss_latency::total 82063.497548                       # average overall mshr miss latency
system.cpu.dcache.overall_avg_mshr_miss_latency::.cpu.data 82063.468081                       # average overall mshr miss latency
system.cpu.dcache.overall_avg_mshr_miss_latency::total 82063.468081                       # average overall mshr miss latency
system.cpu.dcache.replacements                5261329                       # number of replacements
system.cpu.dcache.ReadReq_hits::.cpu.data      2043793                       # number of ReadReq hits
system.cpu.dcache.ReadReq_hits::total         2043793                       # number of ReadReq hits
system.cpu.dcache.ReadReq_misses::.cpu.data          322                       # number of ReadReq misses
system.cpu.dcache.ReadReq_misses::total           322                       # number of ReadReq misses
system.cpu.dcache.ReadReq_miss_latency::.cpu.data     24961000                       # number of ReadReq miss cycles
system.cpu.dcache.ReadReq_miss_latency::total     24961000                       # number of ReadReq miss cycles
system.cpu.dcache.ReadReq_accesses::.cpu.data      2044115                       # number of ReadReq accesses(hits+misses)
system.cpu.dcache.ReadReq_accesses::total      2044115                       # number of ReadReq accesses(hits+misses)
system.cpu.dcache.ReadReq_miss_rate::.cpu.data     0.000158                       # miss rate for ReadReq accesses
system.cpu.dcache.ReadReq_miss_rate::total     0.000158                       # miss rate for ReadReq accesses
system.cpu.dcache.ReadReq_avg_miss_latency::.cpu.data 77518.633540                       # average ReadReq miss latency
system.cpu.dcache.ReadReq_avg_miss_latency::total 77518.633540                       # average ReadReq miss latency
system.cpu.dcache.ReadReq_mshr_hits::.cpu.data           20                       # number of ReadReq MSHR hits
system.cpu.dcache.ReadReq_mshr_hits::total           20                       # number of ReadReq MSHR hits
system.cpu.dcache.ReadReq_mshr_misses::.cpu.data          302                       # number of ReadReq MSHR misses
system.cpu.dcache.ReadReq_mshr_misses::total          302                       # number of ReadReq MSHR misses
system.cpu.dcache.ReadReq_mshr_miss_latency::.cpu.data     23231000                       # number of ReadReq MSHR miss cycles
system.cpu.dcache.ReadReq_mshr_miss_latency::total     23231000                       # number of ReadReq MSHR miss cycles
system.cpu.dcache.ReadReq_mshr_miss_rate::.cpu.data     0.000148                       # mshr miss rate for ReadReq accesses
system.cpu.dcache.ReadReq_mshr_miss_rate::total     0.000148                       # mshr miss rate for ReadReq accesses
system.cpu.dcache.ReadReq_avg_mshr_miss_latency::.cpu.data 76923.841060                       # average ReadReq mshr miss latency
system.cpu.dcache.ReadReq_avg_mshr_miss_latency::total 76923.841060                       # average ReadReq mshr miss latency
system.cpu.dcache.WriteReq_hits::.cpu.data     73813138                       # number of WriteReq hits
system.cpu.dcache.WriteReq_hits::total       73813138                       # number of WriteReq hits
system.cpu.dcache.WriteReq_misses::.cpu.data     10523476                       # number of WriteReq misses
system.cpu.dcache.WriteReq_misses::total     10523476                       # number of WriteReq misses
system.cpu.dcache.WriteReq_miss_latency::.cpu.data 876739016499                       # number of WriteReq miss cycles
system.cpu.dcache.WriteReq_miss_latency::total 876739016499                       # number of WriteReq miss cycles
system.cpu.dcache.WriteReq_accesses::.cpu.data     84336614                       # number of WriteReq accesses(hits+misses)
system.cpu.dcache.WriteReq_accesses::total     84336614                       # number of WriteReq accesses(hits+misses)
system.cpu.dcache.WriteReq_miss_rate::.cpu.data     0.124779                       # miss rate for WriteReq accesses
system.cpu.dcache.WriteReq_miss_rate::total     0.124779                       # miss rate for WriteReq accesses
system.cpu.dcache.WriteReq_avg_miss_latency::.cpu.data 83312.682663                       # average WriteReq miss latency
system.cpu.dcache.WriteReq_avg_miss_latency::total 83312.682663                       # average WriteReq miss latency
system.cpu.dcache.WriteReq_mshr_hits::.cpu.data      5260433                       # number of WriteReq MSHR hits
system.cpu.dcache.WriteReq_mshr_hits::total      5260433                       # number of WriteReq MSHR hits
system.cpu.dcache.WriteReq_mshr_misses::.cpu.data      5263043                       # number of WriteReq MSHR misses
system.cpu.dcache.WriteReq_mshr_misses::total      5263043                       # number of WriteReq MSHR misses
system.cpu.dcache.WriteReq_mshr_miss_latency::.cpu.data 431905268500                       # number of WriteReq MSHR miss cycles
system.cpu.dcache.WriteReq_mshr_miss_latency::total 431905268500                       # number of WriteReq MSHR miss cycles
system.cpu.dcache.WriteReq_mshr_miss_rate::.cpu.data     0.062405                       # mshr miss rate for WriteReq accesses
system.cpu.dcache.WriteReq_mshr_miss_rate::total     0.062405                       # mshr miss rate for WriteReq accesses
system.cpu.dcache.WriteReq_avg_mshr_miss_latency::.cpu.data 82063.792468                       # average WriteReq mshr miss latency
system.cpu.dcache.WriteReq_avg_mshr_miss_latency::total 82063.792468                       # average WriteReq mshr miss latency
system.cpu.dcache.SoftPFReq_hits::.cpu.data           31                       # number of SoftPFReq hits
system.cpu.dcache.SoftPFReq_hits::total            31                       # number of SoftPFReq hits
system.cpu.dcache.SoftPFReq_misses::.cpu.data           40                       # number of SoftPFReq misses
system.cpu.dcache.SoftPFReq_misses::total           40                       # number of SoftPFReq misses
system.cpu.dcache.SoftPFReq_accesses::.cpu.data           71                       # number of SoftPFReq accesses(hits+misses)
system.cpu.dcache.SoftPFReq_accesses::total           71                       # number of SoftPFReq accesses(hits+misses)
system.cpu.dcache.SoftPFReq_miss_rate::.cpu.data     0.563380                       # miss rate for SoftPFReq accesses
system.cpu.dcache.SoftPFReq_miss_rate::total     0.563380                       # miss rate for SoftPFReq accesses
system.cpu.dcache.SoftPFReq_mshr_misses::.cpu.data           33                       # number of SoftPFReq MSHR misses
system.cpu.dcache.SoftPFReq_mshr_misses::total           33                       # number of SoftPFReq MSHR misses
system.cpu.dcache.SoftPFReq_mshr_miss_latency::.cpu.data      2553000                       # number of SoftPFReq MSHR miss cycles
system.cpu.dcache.SoftPFReq_mshr_miss_latency::total      2553000                       # number of SoftPFReq MSHR miss cycles
system.cpu.dcache.SoftPFReq_mshr_miss_rate::.cpu.data     0.464789                       # mshr miss rate for SoftPFReq accesses
system.cpu.dcache.SoftPFReq_mshr_miss_rate::total     0.464789                       # mshr miss rate for SoftPFReq accesses
system.cpu.dcache.SoftPFReq_avg_mshr_miss_latency::.cpu.data 77363.636364                       # average SoftPFReq mshr miss latency
system.cpu.dcache.SoftPFReq_avg_mshr_miss_latency::total 77363.636364                       # average SoftPFReq mshr miss latency
system.cpu.dcache.LoadLockedReq_hits::.cpu.data           34                       # number of LoadLockedReq hits
system.cpu.dcache.LoadLockedReq_hits::total           34                       # number of LoadLockedReq hits
system.cpu.dcache.LoadLockedReq_accesses::.cpu.data           34                       # number of LoadLockedReq accesses(hits+misses)
system.cpu.dcache.LoadLockedReq_accesses::total           34                       # number of LoadLockedReq accesses(hits+misses)
system.cpu.dcache.StoreCondReq_hits::.cpu.data           34                       # number of StoreCondReq hits
system.cpu.dcache.StoreCondReq_hits::total           34                       # number of StoreCondReq hits
system.cpu.dcache.StoreCondReq_accesses::.cpu.data           34                       # number of StoreCondReq accesses(hits+misses)
system.cpu.dcache.StoreCondReq_accesses::total           34                       # number of StoreCondReq accesses(hits+misses)
system.cpu.dcache.tags.pwrStateResidencyTicks::UNDEFINED 513633074500                       # Cumulative time (in ticks) in various power states
system.cpu.dcache.tags.tagsinuse          2044.792196                       # Cycle average of tags in use
system.cpu.dcache.tags.total_refs            81120407                       # Total number of references to valid blocks.
system.cpu.dcache.tags.sampled_refs           5263377                       # Sample count of references to valid blocks.
system.cpu.dcache.tags.avg_refs             15.412236                       # Average number of references to valid blocks.
system.cpu.dcache.tags.warmup_cycle            176500                       # Cycle when the warmup percentage was hit.
system.cpu.dcache.tags.occ_blocks::.cpu.data  2044.792196                       # Average occupied blocks per requestor
system.cpu.dcache.tags.occ_percent::.cpu.data     0.998434                       # Average percentage of cache occupancy
system.cpu.dcache.tags.occ_percent::total     0.998434                       # Average percentage of cache occupancy
system.cpu.dcache.tags.occ_task_id_blocks::1024         2048                       # Occupied blocks per task id
system.cpu.dcache.tags.age_task_id_blocks_1024::0          105                       # Occupied blocks per task id
system.cpu.dcache.tags.age_task_id_blocks_1024::1          925                       # Occupied blocks per task id
system.cpu.dcache.tags.age_task_id_blocks_1024::2         1018                       # Occupied blocks per task id
system.cpu.dcache.tags.occ_task_id_percent::1024            1                       # Percentage of cache occupancy per task id
system.cpu.dcache.tags.tag_accesses         178025113                       # Number of tag accesses
system.cpu.dcache.tags.data_accesses        178025113                       # Number of data accesses
system.cpu.itb.walker.pwrStateResidencyTicks::UNDEFINED 513633074500                       # Cumulative time (in ticks) in various power states
system.cpu.itb.stage2_mmu.stage2_tlb.walker.pwrStateResidencyTicks::UNDEFINED 513633074500                       # Cumulative time (in ticks) in various power states

---------- End Simulation Statistics   ----------
