
---------- Begin Simulation Statistics ----------
final_tick                                88146626500                       # Number of ticks from beginning of simulation (restored from checkpoints and never reset)
host_inst_rate                                 315862                       # Simulator instruction rate (inst/s)
host_mem_usage                                 683964                       # Number of bytes of host memory used
host_op_rate                                   316482                       # Simulator op (including micro ops) rate (op/s)
host_seconds                                   316.59                       # Real time elapsed on the host
host_tick_rate                              278421748                       # Simulator tick rate (ticks/s)
sim_freq                                 1000000000000                       # Frequency of simulated ticks
sim_insts                                   100000001                       # Number of instructions simulated
sim_ops                                     100196363                       # Number of ops (including micro ops) simulated
sim_seconds                                  0.088147                       # Number of seconds simulated
sim_ticks                                 88146626500                       # Number of ticks simulated
system.cpu.branchPred.BTBCorrect                    0                       # Number of correct BTB predictions (this stat may not work properly.
system.cpu.branchPred.BTBHitPct             99.693601                       # BTB Hit Percentage
system.cpu.branchPred.BTBHits                 2095397                       # Number of BTB hits
system.cpu.branchPred.BTBLookups              2101837                       # Number of BTB lookups
system.cpu.branchPred.RASInCorrect                  5                       # Number of incorrect RAS predictions.
system.cpu.branchPred.condIncorrect             81341                       # Number of conditional branches incorrect
system.cpu.branchPred.condPredicted           3727687                       # Number of conditional branches predicted
system.cpu.branchPred.indirectHits                291                       # Number of indirect target hits.
system.cpu.branchPred.indirectLookups             809                       # Number of indirect predictor lookups.
system.cpu.branchPred.indirectMisses              518                       # Number of indirect misses.
system.cpu.branchPred.lookups                 4477774                       # Number of BP lookups
system.cpu.branchPred.usedRAS                   65343                       # Number of times the RAS was used to get a target.
system.cpu.branchPredindirectMispredicted          171                       # Number of mispredicted indirect branches.
system.cpu.committedInsts                   100000001                       # Number of instructions committed
system.cpu.committedOps                     100196363                       # Number of ops (including micro ops) committed
system.cpu.cpi                               1.762933                       # CPI: cycles per instruction
system.cpu.discardedOps                        190671                       # Number of ops (including micro ops) which were discarded before commit
system.cpu.dtb.accesses                             0                       # DTB accesses
system.cpu.dtb.align_faults                         0                       # Number of TLB faults due to alignment restrictions
system.cpu.dtb.domain_faults                        0                       # Number of TLB faults due to domain restrictions
system.cpu.dtb.flush_entries                        0                       # Number of entries that have been flushed from TLB
system.cpu.dtb.flush_tlb                            0                       # Number of times complete TLB was flushed
system.cpu.dtb.flush_tlb_asid                       0                       # Number of times TLB was flushed by ASID
system.cpu.dtb.flush_tlb_mva                        0                       # Number of times TLB was flushed by MVA
system.cpu.dtb.flush_tlb_mva_asid                   0                       # Number of times TLB was flushed by MVA & ASID
system.cpu.dtb.hits                                 0                       # DTB hits
system.cpu.dtb.inst_accesses                        0                       # ITB inst accesses
system.cpu.dtb.inst_hits                            0                       # ITB inst hits
system.cpu.dtb.inst_misses                          0                       # ITB inst misses
system.cpu.dtb.misses                               0                       # DTB misses
system.cpu.dtb.perms_faults                         0                       # Number of TLB faults due to permissions restrictions
system.cpu.dtb.prefetch_faults                      0                       # Number of TLB faults due to prefetch
system.cpu.dtb.read_accesses                        0                       # DTB read accesses
system.cpu.dtb.read_hits                            0                       # DTB read hits
system.cpu.dtb.read_misses                          0                       # DTB read misses
system.cpu.dtb.stage2_mmu.stage2_tlb.accesses            0                       # DTB accesses
system.cpu.dtb.stage2_mmu.stage2_tlb.align_faults            0                       # Number of TLB faults due to alignment restrictions
system.cpu.dtb.stage2_mmu.stage2_tlb.domain_faults            0                       # Number of TLB faults due to domain restrictions
system.cpu.dtb.stage2_mmu.stage2_tlb.flush_entries            0                       # Number of entries that have been flushed from TLB
system.cpu.dtb.stage2_mmu.stage2_tlb.flush_tlb            0                       # Number of times complete TLB was flushed
system.cpu.dtb.stage2_mmu.stage2_tlb.flush_tlb_asid            0                       # Number of times TLB was flushed by ASID
system.cpu.dtb.stage2_mmu.stage2_tlb.flush_tlb_mva            0                       # Number of times TLB was flushed by MVA
system.cpu.dtb.stage2_mmu.stage2_tlb.flush_tlb_mva_asid            0                       # Number of times TLB was flushed by MVA & ASID
system.cpu.dtb.stage2_mmu.stage2_tlb.hits            0                       # DTB hits
system.cpu.dtb.stage2_mmu.stage2_tlb.inst_accesses            0                       # ITB inst accesses
system.cpu.dtb.stage2_mmu.stage2_tlb.inst_hits            0                       # ITB inst hits
system.cpu.dtb.stage2_mmu.stage2_tlb.inst_misses            0                       # ITB inst misses
system.cpu.dtb.stage2_mmu.stage2_tlb.misses            0                       # DTB misses
system.cpu.dtb.stage2_mmu.stage2_tlb.perms_faults            0                       # Number of TLB faults due to permissions restrictions
system.cpu.dtb.stage2_mmu.stage2_tlb.prefetch_faults            0                       # Number of TLB faults due to prefetch
system.cpu.dtb.stage2_mmu.stage2_tlb.read_accesses            0                       # DTB read accesses
system.cpu.dtb.stage2_mmu.stage2_tlb.read_hits            0                       # DTB read hits
system.cpu.dtb.stage2_mmu.stage2_tlb.read_misses            0                       # DTB read misses
system.cpu.dtb.stage2_mmu.stage2_tlb.walker.walkRequestOrigin_Requested::Data            0                       # Table walker requests started/completed, data/inst
system.cpu.dtb.stage2_mmu.stage2_tlb.walker.walkRequestOrigin_Requested::Inst            0                       # Table walker requests started/completed, data/inst
system.cpu.dtb.stage2_mmu.stage2_tlb.walker.walkRequestOrigin_Requested::total            0                       # Table walker requests started/completed, data/inst
system.cpu.dtb.stage2_mmu.stage2_tlb.walker.walkRequestOrigin_Completed::Data            0                       # Table walker requests started/completed, data/inst
system.cpu.dtb.stage2_mmu.stage2_tlb.walker.walkRequestOrigin_Completed::Inst            0                       # Table walker requests started/completed, data/inst
system.cpu.dtb.stage2_mmu.stage2_tlb.walker.walkRequestOrigin_Completed::total            0                       # Table walker requests started/completed, data/inst
system.cpu.dtb.stage2_mmu.stage2_tlb.walker.walkRequestOrigin::total            0                       # Table walker requests started/completed, data/inst
system.cpu.dtb.stage2_mmu.stage2_tlb.walker.walks            0                       # Table walker walks requested
system.cpu.dtb.stage2_mmu.stage2_tlb.write_accesses            0                       # DTB write accesses
system.cpu.dtb.stage2_mmu.stage2_tlb.write_hits            0                       # DTB write hits
system.cpu.dtb.stage2_mmu.stage2_tlb.write_misses            0                       # DTB write misses
system.cpu.dtb.walker.walkRequestOrigin_Requested::Data            0                       # Table walker requests started/completed, data/inst
system.cpu.dtb.walker.walkRequestOrigin_Requested::Inst            0                       # Table walker requests started/completed, data/inst
system.cpu.dtb.walker.walkRequestOrigin_Requested::total            0                       # Table walker requests started/completed, data/inst
system.cpu.dtb.walker.walkRequestOrigin_Completed::Data            0                       # Table walker requests started/completed, data/inst
system.cpu.dtb.walker.walkRequestOrigin_Completed::Inst            0                       # Table walker requests started/completed, data/inst
system.cpu.dtb.walker.walkRequestOrigin_Completed::total            0                       # Table walker requests started/completed, data/inst
system.cpu.dtb.walker.walkRequestOrigin::total            0                       # Table walker requests started/completed, data/inst
system.cpu.dtb.walker.walks                         0                       # Table walker walks requested
system.cpu.dtb.write_accesses                       0                       # DTB write accesses
system.cpu.dtb.write_hits                           0                       # DTB write hits
system.cpu.dtb.write_misses                         0                       # DTB write misses
system.cpu.fetch2.amo_instructions                  0                       # Number of memory atomic instructions successfully decoded
system.cpu.fetch2.fp_instructions                   0                       # Number of floating point instructions successfully decoded
system.cpu.fetch2.int_instructions           42610144                       # Number of integer instructions successfully decoded
system.cpu.fetch2.load_instructions          43402321                       # Number of memory load instructions successfully decoded
system.cpu.fetch2.store_instructions         11001405                       # Number of memory store instructions successfully decoded
system.cpu.fetch2.vec_instructions                  0                       # Number of SIMD instructions successfully decoded
system.cpu.idleCycles                        43445596                       # Total number of cycles that the object has spent stopped
system.cpu.ipc                               0.567237                       # IPC: instructions per cycle
system.cpu.itb.accesses                             0                       # DTB accesses
system.cpu.itb.align_faults                         0                       # Number of TLB faults due to alignment restrictions
system.cpu.itb.domain_faults                        0                       # Number of TLB faults due to domain restrictions
system.cpu.itb.flush_entries                        0                       # Number of entries that have been flushed from TLB
system.cpu.itb.flush_tlb                            0                       # Number of times complete TLB was flushed
system.cpu.itb.flush_tlb_asid                       0                       # Number of times TLB was flushed by ASID
system.cpu.itb.flush_tlb_mva                        0                       # Number of times TLB was flushed by MVA
system.cpu.itb.flush_tlb_mva_asid                   0                       # Number of times TLB was flushed by MVA & ASID
system.cpu.itb.hits                                 0                       # DTB hits
system.cpu.itb.inst_accesses                        0                       # ITB inst accesses
system.cpu.itb.inst_hits                            0                       # ITB inst hits
system.cpu.itb.inst_misses                          0                       # ITB inst misses
system.cpu.itb.misses                               0                       # DTB misses
system.cpu.itb.perms_faults                         0                       # Number of TLB faults due to permissions restrictions
system.cpu.itb.prefetch_faults                      0                       # Number of TLB faults due to prefetch
system.cpu.itb.read_accesses                        0                       # DTB read accesses
system.cpu.itb.read_hits                            0                       # DTB read hits
system.cpu.itb.read_misses                          0                       # DTB read misses
system.cpu.itb.stage2_mmu.stage2_tlb.accesses            0                       # DTB accesses
system.cpu.itb.stage2_mmu.stage2_tlb.align_faults            0                       # Number of TLB faults due to alignment restrictions
system.cpu.itb.stage2_mmu.stage2_tlb.domain_faults            0                       # Number of TLB faults due to domain restrictions
system.cpu.itb.stage2_mmu.stage2_tlb.flush_entries            0                       # Number of entries that have been flushed from TLB
system.cpu.itb.stage2_mmu.stage2_tlb.flush_tlb            0                       # Number of times complete TLB was flushed
system.cpu.itb.stage2_mmu.stage2_tlb.flush_tlb_asid            0                       # Number of times TLB was flushed by ASID
system.cpu.itb.stage2_mmu.stage2_tlb.flush_tlb_mva            0                       # Number of times TLB was flushed by MVA
system.cpu.itb.stage2_mmu.stage2_tlb.flush_tlb_mva_asid            0                       # Number of times TLB was flushed by MVA & ASID
system.cpu.itb.stage2_mmu.stage2_tlb.hits            0                       # DTB hits
system.cpu.itb.stage2_mmu.stage2_tlb.inst_accesses            0                       # ITB inst accesses
system.cpu.itb.stage2_mmu.stage2_tlb.inst_hits            0                       # ITB inst hits
system.cpu.itb.stage2_mmu.stage2_tlb.inst_misses            0                       # ITB inst misses
system.cpu.itb.stage2_mmu.stage2_tlb.misses            0                       # DTB misses
system.cpu.itb.stage2_mmu.stage2_tlb.perms_faults            0                       # Number of TLB faults due to permissions restrictions
system.cpu.itb.stage2_mmu.stage2_tlb.prefetch_faults            0                       # Number of TLB faults due to prefetch
system.cpu.itb.stage2_mmu.stage2_tlb.read_accesses            0                       # DTB read accesses
system.cpu.itb.stage2_mmu.stage2_tlb.read_hits            0                       # DTB read hits
system.cpu.itb.stage2_mmu.stage2_tlb.read_misses            0                       # DTB read misses
system.cpu.itb.stage2_mmu.stage2_tlb.walker.walkRequestOrigin_Requested::Data            0                       # Table walker requests started/completed, data/inst
system.cpu.itb.stage2_mmu.stage2_tlb.walker.walkRequestOrigin_Requested::Inst            0                       # Table walker requests started/completed, data/inst
system.cpu.itb.stage2_mmu.stage2_tlb.walker.walkRequestOrigin_Requested::total            0                       # Table walker requests started/completed, data/inst
system.cpu.itb.stage2_mmu.stage2_tlb.walker.walkRequestOrigin_Completed::Data            0                       # Table walker requests started/completed, data/inst
system.cpu.itb.stage2_mmu.stage2_tlb.walker.walkRequestOrigin_Completed::Inst            0                       # Table walker requests started/completed, data/inst
system.cpu.itb.stage2_mmu.stage2_tlb.walker.walkRequestOrigin_Completed::total            0                       # Table walker requests started/completed, data/inst
system.cpu.itb.stage2_mmu.stage2_tlb.walker.walkRequestOrigin::total            0                       # Table walker requests started/completed, data/inst
system.cpu.itb.stage2_mmu.stage2_tlb.walker.walks            0                       # Table walker walks requested
system.cpu.itb.stage2_mmu.stage2_tlb.write_accesses            0                       # DTB write accesses
system.cpu.itb.stage2_mmu.stage2_tlb.write_hits            0                       # DTB write hits
system.cpu.itb.stage2_mmu.stage2_tlb.write_misses            0                       # DTB write misses
system.cpu.itb.walker.walkRequestOrigin_Requested::Data            0                       # Table walker requests started/completed, data/inst
system.cpu.itb.walker.walkRequestOrigin_Requested::Inst            0                       # Table walker requests started/completed, data/inst
system.cpu.itb.walker.walkRequestOrigin_Requested::total            0                       # Table walker requests started/completed, data/inst
system.cpu.itb.walker.walkRequestOrigin_Completed::Data            0                       # Table walker requests started/completed, data/inst
system.cpu.itb.walker.walkRequestOrigin_Completed::Inst            0                       # Table walker requests started/completed, data/inst
system.cpu.itb.walker.walkRequestOrigin_Completed::total            0                       # Table walker requests started/completed, data/inst
system.cpu.itb.walker.walkRequestOrigin::total            0                       # Table walker requests started/completed, data/inst
system.cpu.itb.walker.walks                         0                       # Table walker walks requested
system.cpu.itb.write_accesses                       0                       # DTB write accesses
system.cpu.itb.write_hits                           0                       # DTB write hits
system.cpu.itb.write_misses                         0                       # DTB write misses
system.cpu.numCycles                        176293253                       # number of cpu cycles simulated
system.cpu.numFetchSuspends                         0                       # Number of times Execute suspended instruction fetching
system.cpu.numWorkItemsCompleted                    0                       # number of work items this cpu completed
system.cpu.numWorkItemsStarted                      0                       # number of work items this cpu started
system.cpu.op_class_0::No_OpClass                   0      0.00%      0.00% # Class of committed instruction
system.cpu.op_class_0::IntAlu                46531400     46.44%     46.44% # Class of committed instruction
system.cpu.op_class_0::IntMult                  20720      0.02%     46.46% # Class of committed instruction
system.cpu.op_class_0::IntDiv                       0      0.00%     46.46% # Class of committed instruction
system.cpu.op_class_0::FloatAdd                     0      0.00%     46.46% # Class of committed instruction
system.cpu.op_class_0::FloatCmp                     0      0.00%     46.46% # Class of committed instruction
system.cpu.op_class_0::FloatCvt                     0      0.00%     46.46% # Class of committed instruction
system.cpu.op_class_0::FloatMult                    0      0.00%     46.46% # Class of committed instruction
system.cpu.op_class_0::FloatMultAcc                 0      0.00%     46.46% # Class of committed instruction
system.cpu.op_class_0::FloatDiv                     0      0.00%     46.46% # Class of committed instruction
system.cpu.op_class_0::FloatMisc                    0      0.00%     46.46% # Class of committed instruction
system.cpu.op_class_0::FloatSqrt                    0      0.00%     46.46% # Class of committed instruction
system.cpu.op_class_0::SimdAdd                      0      0.00%     46.46% # Class of committed instruction
system.cpu.op_class_0::SimdAddAcc                   0      0.00%     46.46% # Class of committed instruction
system.cpu.op_class_0::SimdAlu                      0      0.00%     46.46% # Class of committed instruction
system.cpu.op_class_0::SimdCmp                      0      0.00%     46.46% # Class of committed instruction
system.cpu.op_class_0::SimdCvt                      0      0.00%     46.46% # Class of committed instruction
system.cpu.op_class_0::SimdMisc                     0      0.00%     46.46% # Class of committed instruction
system.cpu.op_class_0::SimdMult                     0      0.00%     46.46% # Class of committed instruction
system.cpu.op_class_0::SimdMultAcc                  0      0.00%     46.46% # Class of committed instruction
system.cpu.op_class_0::SimdShift                    0      0.00%     46.46% # Class of committed instruction
system.cpu.op_class_0::SimdShiftAcc                 0      0.00%     46.46% # Class of committed instruction
system.cpu.op_class_0::SimdDiv                      0      0.00%     46.46% # Class of committed instruction
system.cpu.op_class_0::SimdSqrt                     0      0.00%     46.46% # Class of committed instruction
system.cpu.op_class_0::SimdFloatAdd                 0      0.00%     46.46% # Class of committed instruction
system.cpu.op_class_0::SimdFloatAlu                 0      0.00%     46.46% # Class of committed instruction
system.cpu.op_class_0::SimdFloatCmp                 0      0.00%     46.46% # Class of committed instruction
system.cpu.op_class_0::SimdFloatCvt                 0      0.00%     46.46% # Class of committed instruction
system.cpu.op_class_0::SimdFloatDiv                 0      0.00%     46.46% # Class of committed instruction
system.cpu.op_class_0::SimdFloatMisc               18      0.00%     46.46% # Class of committed instruction
system.cpu.op_class_0::SimdFloatMult                0      0.00%     46.46% # Class of committed instruction
system.cpu.op_class_0::SimdFloatMultAcc             0      0.00%     46.46% # Class of committed instruction
system.cpu.op_class_0::SimdFloatSqrt                0      0.00%     46.46% # Class of committed instruction
system.cpu.op_class_0::SimdReduceAdd                0      0.00%     46.46% # Class of committed instruction
system.cpu.op_class_0::SimdReduceAlu                0      0.00%     46.46% # Class of committed instruction
system.cpu.op_class_0::SimdReduceCmp                0      0.00%     46.46% # Class of committed instruction
system.cpu.op_class_0::SimdFloatReduceAdd            0      0.00%     46.46% # Class of committed instruction
system.cpu.op_class_0::SimdFloatReduceCmp            0      0.00%     46.46% # Class of committed instruction
system.cpu.op_class_0::SimdAes                      0      0.00%     46.46% # Class of committed instruction
system.cpu.op_class_0::SimdAesMix                   0      0.00%     46.46% # Class of committed instruction
system.cpu.op_class_0::SimdSha1Hash                 0      0.00%     46.46% # Class of committed instruction
system.cpu.op_class_0::SimdSha1Hash2                0      0.00%     46.46% # Class of committed instruction
system.cpu.op_class_0::SimdSha256Hash               0      0.00%     46.46% # Class of committed instruction
system.cpu.op_class_0::SimdSha256Hash2              0      0.00%     46.46% # Class of committed instruction
system.cpu.op_class_0::SimdShaSigma2                0      0.00%     46.46% # Class of committed instruction
system.cpu.op_class_0::SimdShaSigma3                0      0.00%     46.46% # Class of committed instruction
system.cpu.op_class_0::SimdPredAlu                  0      0.00%     46.46% # Class of committed instruction
system.cpu.op_class_0::MemRead               42693601     42.61%     89.07% # Class of committed instruction
system.cpu.op_class_0::MemWrite              10950624     10.93%    100.00% # Class of committed instruction
system.cpu.op_class_0::FloatMemRead                 0      0.00%    100.00% # Class of committed instruction
system.cpu.op_class_0::FloatMemWrite                0      0.00%    100.00% # Class of committed instruction
system.cpu.op_class_0::IprAccess                    0      0.00%    100.00% # Class of committed instruction
system.cpu.op_class_0::InstPrefetch                 0      0.00%    100.00% # Class of committed instruction
system.cpu.op_class_0::total                100196363                       # Class of committed instruction
system.cpu.tickCycles                       132847657                       # Number of cycles that the object actually ticked
system.cpu.workload.numSyscalls                    84                       # Number of system calls
system.membus.snoop_filter.hit_multi_requests            0                       # Number of requests hitting in the snoop filter with multiple (>1) holders of the requested data.
system.membus.snoop_filter.hit_multi_snoops            0                       # Number of snoops hitting in the snoop filter with multiple (>1) holders of the requested data.
system.membus.snoop_filter.hit_single_requests       268625                       # Number of requests hitting in the snoop filter with a single holder of the requested data.
system.membus.snoop_filter.hit_single_snoops            0                       # Number of snoops hitting in the snoop filter with a single holder of the requested data.
system.membus.snoop_filter.tot_requests        546005                       # Total number of requests made to the snoop filter.
system.membus.snoop_filter.tot_snoops               0                       # Total number of snoops made to the snoop filter.
system.tol2bus.snoop_filter.hit_multi_requests          121                       # Number of requests hitting in the snoop filter with multiple (>1) holders of the requested data.
system.tol2bus.snoop_filter.hit_multi_snoops            7                       # Number of snoops hitting in the snoop filter with multiple (>1) holders of the requested data.
system.tol2bus.snoop_filter.hit_single_requests       710674                       # Number of requests hitting in the snoop filter with a single holder of the requested data.
system.tol2bus.snoop_filter.hit_single_snoops          768                       # Number of snoops hitting in the snoop filter with a single holder of the requested data.
system.tol2bus.snoop_filter.tot_requests      1422946                       # Total number of requests made to the snoop filter.
system.tol2bus.snoop_filter.tot_snoops            775                       # Total number of snoops made to the snoop filter.
system.membus.pwrStateResidencyTicks::UNDEFINED  88146626500                       # Cumulative time (in ticks) in various power states
system.membus.trans_dist::ReadResp             109079                       # Transaction distribution
system.membus.trans_dist::WritebackDirty       190578                       # Transaction distribution
system.membus.trans_dist::CleanEvict            78033                       # Transaction distribution
system.membus.trans_dist::ReadExReq            168315                       # Transaction distribution
system.membus.trans_dist::ReadExResp           168314                       # Transaction distribution
system.membus.trans_dist::ReadSharedReq        109079                       # Transaction distribution
system.membus.pkt_count_system.l2.mem_side::system.mem_ctrls.port       823398                       # Packet count per connected master and slave (bytes)
system.membus.pkt_count::total                 823398                       # Packet count per connected master and slave (bytes)
system.membus.pkt_size_system.l2.mem_side::system.mem_ctrls.port     29950144                       # Cumulative packet size per connected master and slave (bytes)
system.membus.pkt_size::total                29950144                       # Cumulative packet size per connected master and slave (bytes)
system.membus.snoops                                0                       # Total snoops (count)
system.membus.snoopTraffic                          0                       # Total snoop traffic (bytes)
system.membus.snoop_fanout::samples            277394                       # Request fanout histogram
system.membus.snoop_fanout::mean                    0                       # Request fanout histogram
system.membus.snoop_fanout::stdev                   0                       # Request fanout histogram
system.membus.snoop_fanout::underflows              0      0.00%      0.00% # Request fanout histogram
system.membus.snoop_fanout::0                  277394    100.00%    100.00% # Request fanout histogram
system.membus.snoop_fanout::1                       0      0.00%    100.00% # Request fanout histogram
system.membus.snoop_fanout::overflows               0      0.00%    100.00% # Request fanout histogram
system.membus.snoop_fanout::min_value               0                       # Request fanout histogram
system.membus.snoop_fanout::max_value               0                       # Request fanout histogram
system.membus.snoop_fanout::total              277394                       # Request fanout histogram
system.membus.respLayer1.occupancy         1505292250                       # Layer occupancy (ticks)
system.membus.respLayer1.utilization              1.7                       # Layer utilization (%)
system.membus.reqLayer0.occupancy          1366010500                       # Layer occupancy (ticks)
system.membus.reqLayer0.utilization               1.5                       # Layer utilization (%)
system.tol2bus.pwrStateResidencyTicks::UNDEFINED  88146626500                       # Cumulative time (in ticks) in various power states
system.tol2bus.trans_dist::ReadResp            425938                       # Transaction distribution
system.tol2bus.trans_dist::WritebackDirty       806868                       # Transaction distribution
system.tol2bus.trans_dist::WritebackClean          117                       # Transaction distribution
system.tol2bus.trans_dist::CleanEvict          173053                       # Transaction distribution
system.tol2bus.trans_dist::ReadExReq           286336                       # Transaction distribution
system.tol2bus.trans_dist::ReadExResp          286335                       # Transaction distribution
system.tol2bus.trans_dist::ReadCleanReq           694                       # Transaction distribution
system.tol2bus.trans_dist::ReadSharedReq       425244                       # Transaction distribution
system.tol2bus.pkt_count_system.cpu.icache.mem_side::system.l2.cpu_side         1505                       # Packet count per connected master and slave (bytes)
system.tol2bus.pkt_count_system.cpu.dcache.mem_side::system.l2.cpu_side      2133714                       # Packet count per connected master and slave (bytes)
system.tol2bus.pkt_count::total               2135219                       # Packet count per connected master and slave (bytes)
system.tol2bus.pkt_size_system.cpu.icache.mem_side::system.l2.cpu_side        51904                       # Cumulative packet size per connected master and slave (bytes)
system.tol2bus.pkt_size_system.cpu.dcache.mem_side::system.l2.cpu_side     84983616                       # Cumulative packet size per connected master and slave (bytes)
system.tol2bus.pkt_size::total               85035520                       # Cumulative packet size per connected master and slave (bytes)
system.tol2bus.snoops                          269366                       # Total snoops (count)
system.tol2bus.snoopTraffic                  12196992                       # Total snoop traffic (bytes)
system.tol2bus.snoop_fanout::samples           981640                       # Request fanout histogram
system.tol2bus.snoop_fanout::mean            0.000922                       # Request fanout histogram
system.tol2bus.snoop_fanout::stdev           0.030583                       # Request fanout histogram
system.tol2bus.snoop_fanout::underflows             0      0.00%      0.00% # Request fanout histogram
system.tol2bus.snoop_fanout::0                 980742     99.91%     99.91% # Request fanout histogram
system.tol2bus.snoop_fanout::1                    891      0.09%    100.00% # Request fanout histogram
system.tol2bus.snoop_fanout::2                      7      0.00%    100.00% # Request fanout histogram
system.tol2bus.snoop_fanout::overflows              0      0.00%    100.00% # Request fanout histogram
system.tol2bus.snoop_fanout::min_value              0                       # Request fanout histogram
system.tol2bus.snoop_fanout::max_value              2                       # Request fanout histogram
system.tol2bus.snoop_fanout::total             981640                       # Request fanout histogram
system.tol2bus.reqLayer0.occupancy         1327880000                       # Layer occupancy (ticks)
system.tol2bus.reqLayer0.utilization              1.5                       # Layer utilization (%)
system.tol2bus.respLayer1.occupancy        1067369997                       # Layer occupancy (ticks)
system.tol2bus.respLayer1.utilization             1.2                       # Layer utilization (%)
system.tol2bus.respLayer0.occupancy           1041000                       # Layer occupancy (ticks)
system.tol2bus.respLayer0.utilization             0.0                       # Layer utilization (%)
system.voltage_domain.voltage                       1                       # Voltage in Volts
system.clk_domain.clock                          1000                       # Clock period in ticks
system.l2.pwrStateResidencyTicks::UNDEFINED  88146626500                       # Cumulative time (in ticks) in various power states
system.l2.demand_hits::.cpu.inst                   34                       # number of demand (read+write) hits
system.l2.demand_hits::.cpu.data               434843                       # number of demand (read+write) hits
system.l2.demand_hits::total                   434877                       # number of demand (read+write) hits
system.l2.overall_hits::.cpu.inst                  34                       # number of overall hits
system.l2.overall_hits::.cpu.data              434843                       # number of overall hits
system.l2.overall_hits::total                  434877                       # number of overall hits
system.l2.demand_misses::.cpu.inst                660                       # number of demand (read+write) misses
system.l2.demand_misses::.cpu.data             276737                       # number of demand (read+write) misses
system.l2.demand_misses::total                 277397                       # number of demand (read+write) misses
system.l2.overall_misses::.cpu.inst               660                       # number of overall misses
system.l2.overall_misses::.cpu.data            276737                       # number of overall misses
system.l2.overall_misses::total                277397                       # number of overall misses
system.l2.demand_miss_latency::.cpu.inst     51368000                       # number of demand (read+write) miss cycles
system.l2.demand_miss_latency::.cpu.data  24094469500                       # number of demand (read+write) miss cycles
system.l2.demand_miss_latency::total      24145837500                       # number of demand (read+write) miss cycles
system.l2.overall_miss_latency::.cpu.inst     51368000                       # number of overall miss cycles
system.l2.overall_miss_latency::.cpu.data  24094469500                       # number of overall miss cycles
system.l2.overall_miss_latency::total     24145837500                       # number of overall miss cycles
system.l2.demand_accesses::.cpu.inst              694                       # number of demand (read+write) accesses
system.l2.demand_accesses::.cpu.data           711580                       # number of demand (read+write) accesses
system.l2.demand_accesses::total               712274                       # number of demand (read+write) accesses
system.l2.overall_accesses::.cpu.inst             694                       # number of overall (read+write) accesses
system.l2.overall_accesses::.cpu.data          711580                       # number of overall (read+write) accesses
system.l2.overall_accesses::total              712274                       # number of overall (read+write) accesses
system.l2.demand_miss_rate::.cpu.inst        0.951009                       # miss rate for demand accesses
system.l2.demand_miss_rate::.cpu.data        0.388905                       # miss rate for demand accesses
system.l2.demand_miss_rate::total            0.389453                       # miss rate for demand accesses
system.l2.overall_miss_rate::.cpu.inst       0.951009                       # miss rate for overall accesses
system.l2.overall_miss_rate::.cpu.data       0.388905                       # miss rate for overall accesses
system.l2.overall_miss_rate::total           0.389453                       # miss rate for overall accesses
system.l2.demand_avg_miss_latency::.cpu.inst 77830.303030                       # average overall miss latency
system.l2.demand_avg_miss_latency::.cpu.data 87066.310251                       # average overall miss latency
system.l2.demand_avg_miss_latency::total 87044.335375                       # average overall miss latency
system.l2.overall_avg_miss_latency::.cpu.inst 77830.303030                       # average overall miss latency
system.l2.overall_avg_miss_latency::.cpu.data 87066.310251                       # average overall miss latency
system.l2.overall_avg_miss_latency::total 87044.335375                       # average overall miss latency
system.l2.blocked_cycles::no_mshrs                  0                       # number of cycles access was blocked
system.l2.blocked_cycles::no_targets                0                       # number of cycles access was blocked
system.l2.blocked::no_mshrs                         0                       # number of cycles access was blocked
system.l2.blocked::no_targets                       0                       # number of cycles access was blocked
system.l2.avg_blocked_cycles::no_mshrs            nan                       # average number of cycles each access was blocked
system.l2.avg_blocked_cycles::no_targets          nan                       # average number of cycles each access was blocked
system.l2.writebacks::.writebacks              190578                       # number of writebacks
system.l2.writebacks::total                    190578                       # number of writebacks
system.l2.demand_mshr_hits::.cpu.data               3                       # number of demand (read+write) MSHR hits
system.l2.demand_mshr_hits::total                   3                       # number of demand (read+write) MSHR hits
system.l2.overall_mshr_hits::.cpu.data              3                       # number of overall MSHR hits
system.l2.overall_mshr_hits::total                  3                       # number of overall MSHR hits
system.l2.demand_mshr_misses::.cpu.inst           660                       # number of demand (read+write) MSHR misses
system.l2.demand_mshr_misses::.cpu.data        276734                       # number of demand (read+write) MSHR misses
system.l2.demand_mshr_misses::total            277394                       # number of demand (read+write) MSHR misses
system.l2.overall_mshr_misses::.cpu.inst          660                       # number of overall MSHR misses
system.l2.overall_mshr_misses::.cpu.data       276734                       # number of overall MSHR misses
system.l2.overall_mshr_misses::total           277394                       # number of overall MSHR misses
system.l2.demand_mshr_miss_latency::.cpu.inst     44768000                       # number of demand (read+write) MSHR miss cycles
system.l2.demand_mshr_miss_latency::.cpu.data  21326941500                       # number of demand (read+write) MSHR miss cycles
system.l2.demand_mshr_miss_latency::total  21371709500                       # number of demand (read+write) MSHR miss cycles
system.l2.overall_mshr_miss_latency::.cpu.inst     44768000                       # number of overall MSHR miss cycles
system.l2.overall_mshr_miss_latency::.cpu.data  21326941500                       # number of overall MSHR miss cycles
system.l2.overall_mshr_miss_latency::total  21371709500                       # number of overall MSHR miss cycles
system.l2.demand_mshr_miss_rate::.cpu.inst     0.951009                       # mshr miss rate for demand accesses
system.l2.demand_mshr_miss_rate::.cpu.data     0.388901                       # mshr miss rate for demand accesses
system.l2.demand_mshr_miss_rate::total       0.389448                       # mshr miss rate for demand accesses
system.l2.overall_mshr_miss_rate::.cpu.inst     0.951009                       # mshr miss rate for overall accesses
system.l2.overall_mshr_miss_rate::.cpu.data     0.388901                       # mshr miss rate for overall accesses
system.l2.overall_mshr_miss_rate::total      0.389448                       # mshr miss rate for overall accesses
system.l2.demand_avg_mshr_miss_latency::.cpu.inst 67830.303030                       # average overall mshr miss latency
system.l2.demand_avg_mshr_miss_latency::.cpu.data 77066.574761                       # average overall mshr miss latency
system.l2.demand_avg_mshr_miss_latency::total 77044.599018                       # average overall mshr miss latency
system.l2.overall_avg_mshr_miss_latency::.cpu.inst 67830.303030                       # average overall mshr miss latency
system.l2.overall_avg_mshr_miss_latency::.cpu.data 77066.574761                       # average overall mshr miss latency
system.l2.overall_avg_mshr_miss_latency::total 77044.599018                       # average overall mshr miss latency
system.l2.replacements                         269366                       # number of replacements
system.l2.WritebackDirty_hits::.writebacks       616290                       # number of WritebackDirty hits
system.l2.WritebackDirty_hits::total           616290                       # number of WritebackDirty hits
system.l2.WritebackDirty_accesses::.writebacks       616290                       # number of WritebackDirty accesses(hits+misses)
system.l2.WritebackDirty_accesses::total       616290                       # number of WritebackDirty accesses(hits+misses)
system.l2.WritebackClean_hits::.writebacks          111                       # number of WritebackClean hits
system.l2.WritebackClean_hits::total              111                       # number of WritebackClean hits
system.l2.WritebackClean_accesses::.writebacks          111                       # number of WritebackClean accesses(hits+misses)
system.l2.WritebackClean_accesses::total          111                       # number of WritebackClean accesses(hits+misses)
system.l2.CleanEvict_mshr_misses::.writebacks           20                       # number of CleanEvict MSHR misses
system.l2.CleanEvict_mshr_misses::total            20                       # number of CleanEvict MSHR misses
system.l2.CleanEvict_mshr_miss_rate::.writebacks          inf                       # mshr miss rate for CleanEvict accesses
system.l2.CleanEvict_mshr_miss_rate::total          inf                       # mshr miss rate for CleanEvict accesses
system.l2.ReadExReq_hits::.cpu.data            118021                       # number of ReadExReq hits
system.l2.ReadExReq_hits::total                118021                       # number of ReadExReq hits
system.l2.ReadExReq_misses::.cpu.data          168315                       # number of ReadExReq misses
system.l2.ReadExReq_misses::total              168315                       # number of ReadExReq misses
system.l2.ReadExReq_miss_latency::.cpu.data  15091077500                       # number of ReadExReq miss cycles
system.l2.ReadExReq_miss_latency::total   15091077500                       # number of ReadExReq miss cycles
system.l2.ReadExReq_accesses::.cpu.data        286336                       # number of ReadExReq accesses(hits+misses)
system.l2.ReadExReq_accesses::total            286336                       # number of ReadExReq accesses(hits+misses)
system.l2.ReadExReq_miss_rate::.cpu.data     0.587823                       # miss rate for ReadExReq accesses
system.l2.ReadExReq_miss_rate::total         0.587823                       # miss rate for ReadExReq accesses
system.l2.ReadExReq_avg_miss_latency::.cpu.data 89659.730268                       # average ReadExReq miss latency
system.l2.ReadExReq_avg_miss_latency::total 89659.730268                       # average ReadExReq miss latency
system.l2.ReadExReq_mshr_misses::.cpu.data       168315                       # number of ReadExReq MSHR misses
system.l2.ReadExReq_mshr_misses::total         168315                       # number of ReadExReq MSHR misses
system.l2.ReadExReq_mshr_miss_latency::.cpu.data  13407937500                       # number of ReadExReq MSHR miss cycles
system.l2.ReadExReq_mshr_miss_latency::total  13407937500                       # number of ReadExReq MSHR miss cycles
system.l2.ReadExReq_mshr_miss_rate::.cpu.data     0.587823                       # mshr miss rate for ReadExReq accesses
system.l2.ReadExReq_mshr_miss_rate::total     0.587823                       # mshr miss rate for ReadExReq accesses
system.l2.ReadExReq_avg_mshr_miss_latency::.cpu.data 79659.789680                       # average ReadExReq mshr miss latency
system.l2.ReadExReq_avg_mshr_miss_latency::total 79659.789680                       # average ReadExReq mshr miss latency
system.l2.ReadCleanReq_hits::.cpu.inst             34                       # number of ReadCleanReq hits
system.l2.ReadCleanReq_hits::total                 34                       # number of ReadCleanReq hits
system.l2.ReadCleanReq_misses::.cpu.inst          660                       # number of ReadCleanReq misses
system.l2.ReadCleanReq_misses::total              660                       # number of ReadCleanReq misses
system.l2.ReadCleanReq_miss_latency::.cpu.inst     51368000                       # number of ReadCleanReq miss cycles
system.l2.ReadCleanReq_miss_latency::total     51368000                       # number of ReadCleanReq miss cycles
system.l2.ReadCleanReq_accesses::.cpu.inst          694                       # number of ReadCleanReq accesses(hits+misses)
system.l2.ReadCleanReq_accesses::total            694                       # number of ReadCleanReq accesses(hits+misses)
system.l2.ReadCleanReq_miss_rate::.cpu.inst     0.951009                       # miss rate for ReadCleanReq accesses
system.l2.ReadCleanReq_miss_rate::total      0.951009                       # miss rate for ReadCleanReq accesses
system.l2.ReadCleanReq_avg_miss_latency::.cpu.inst 77830.303030                       # average ReadCleanReq miss latency
system.l2.ReadCleanReq_avg_miss_latency::total 77830.303030                       # average ReadCleanReq miss latency
system.l2.ReadCleanReq_mshr_misses::.cpu.inst          660                       # number of ReadCleanReq MSHR misses
system.l2.ReadCleanReq_mshr_misses::total          660                       # number of ReadCleanReq MSHR misses
system.l2.ReadCleanReq_mshr_miss_latency::.cpu.inst     44768000                       # number of ReadCleanReq MSHR miss cycles
system.l2.ReadCleanReq_mshr_miss_latency::total     44768000                       # number of ReadCleanReq MSHR miss cycles
system.l2.ReadCleanReq_mshr_miss_rate::.cpu.inst     0.951009                       # mshr miss rate for ReadCleanReq accesses
system.l2.ReadCleanReq_mshr_miss_rate::total     0.951009                       # mshr miss rate for ReadCleanReq accesses
system.l2.ReadCleanReq_avg_mshr_miss_latency::.cpu.inst 67830.303030                       # average ReadCleanReq mshr miss latency
system.l2.ReadCleanReq_avg_mshr_miss_latency::total 67830.303030                       # average ReadCleanReq mshr miss latency
system.l2.ReadSharedReq_hits::.cpu.data        316822                       # number of ReadSharedReq hits
system.l2.ReadSharedReq_hits::total            316822                       # number of ReadSharedReq hits
system.l2.ReadSharedReq_misses::.cpu.data       108422                       # number of ReadSharedReq misses
system.l2.ReadSharedReq_misses::total          108422                       # number of ReadSharedReq misses
system.l2.ReadSharedReq_miss_latency::.cpu.data   9003392000                       # number of ReadSharedReq miss cycles
system.l2.ReadSharedReq_miss_latency::total   9003392000                       # number of ReadSharedReq miss cycles
system.l2.ReadSharedReq_accesses::.cpu.data       425244                       # number of ReadSharedReq accesses(hits+misses)
system.l2.ReadSharedReq_accesses::total        425244                       # number of ReadSharedReq accesses(hits+misses)
system.l2.ReadSharedReq_miss_rate::.cpu.data     0.254964                       # miss rate for ReadSharedReq accesses
system.l2.ReadSharedReq_miss_rate::total     0.254964                       # miss rate for ReadSharedReq accesses
system.l2.ReadSharedReq_avg_miss_latency::.cpu.data 83040.268580                       # average ReadSharedReq miss latency
system.l2.ReadSharedReq_avg_miss_latency::total 83040.268580                       # average ReadSharedReq miss latency
system.l2.ReadSharedReq_mshr_hits::.cpu.data            3                       # number of ReadSharedReq MSHR hits
system.l2.ReadSharedReq_mshr_hits::total            3                       # number of ReadSharedReq MSHR hits
system.l2.ReadSharedReq_mshr_misses::.cpu.data       108419                       # number of ReadSharedReq MSHR misses
system.l2.ReadSharedReq_mshr_misses::total       108419                       # number of ReadSharedReq MSHR misses
system.l2.ReadSharedReq_mshr_miss_latency::.cpu.data   7919004000                       # number of ReadSharedReq MSHR miss cycles
system.l2.ReadSharedReq_mshr_miss_latency::total   7919004000                       # number of ReadSharedReq MSHR miss cycles
system.l2.ReadSharedReq_mshr_miss_rate::.cpu.data     0.254957                       # mshr miss rate for ReadSharedReq accesses
system.l2.ReadSharedReq_mshr_miss_rate::total     0.254957                       # mshr miss rate for ReadSharedReq accesses
system.l2.ReadSharedReq_avg_mshr_miss_latency::.cpu.data 73040.740092                       # average ReadSharedReq mshr miss latency
system.l2.ReadSharedReq_avg_mshr_miss_latency::total 73040.740092                       # average ReadSharedReq mshr miss latency
system.l2.tags.pwrStateResidencyTicks::UNDEFINED  88146626500                       # Cumulative time (in ticks) in various power states
system.l2.tags.tagsinuse                  8043.016897                       # Cycle average of tags in use
system.l2.tags.total_refs                     1422801                       # Total number of references to valid blocks.
system.l2.tags.sampled_refs                    277558                       # Sample count of references to valid blocks.
system.l2.tags.avg_refs                      5.126139                       # Average number of references to valid blocks.
system.l2.tags.warmup_cycle                     77000                       # Cycle when the warmup percentage was hit.
system.l2.tags.occ_blocks::.writebacks      12.105392                       # Average occupied blocks per requestor
system.l2.tags.occ_blocks::.cpu.inst        25.781747                       # Average occupied blocks per requestor
system.l2.tags.occ_blocks::.cpu.data      8005.129758                       # Average occupied blocks per requestor
system.l2.tags.occ_percent::.writebacks      0.001478                       # Average percentage of cache occupancy
system.l2.tags.occ_percent::.cpu.inst        0.003147                       # Average percentage of cache occupancy
system.l2.tags.occ_percent::.cpu.data        0.977189                       # Average percentage of cache occupancy
system.l2.tags.occ_percent::total            0.981814                       # Average percentage of cache occupancy
system.l2.tags.occ_task_id_blocks::1024          8192                       # Occupied blocks per task id
system.l2.tags.age_task_id_blocks_1024::0          142                       # Occupied blocks per task id
system.l2.tags.age_task_id_blocks_1024::1          351                       # Occupied blocks per task id
system.l2.tags.age_task_id_blocks_1024::2         4050                       # Occupied blocks per task id
system.l2.tags.age_task_id_blocks_1024::3         3646                       # Occupied blocks per task id
system.l2.tags.age_task_id_blocks_1024::4            3                       # Occupied blocks per task id
system.l2.tags.occ_task_id_percent::1024            1                       # Percentage of cache occupancy per task id
system.l2.tags.tag_accesses                  11660158                       # Number of tag accesses
system.l2.tags.data_accesses                 11660158                       # Number of data accesses
system.cpu_voltage_domain.voltage                   1                       # Voltage in Volts
system.mem_ctrls.pwrStateResidencyTicks::UNDEFINED  88146626500                       # Cumulative time (in ticks) in various power states
system.mem_ctrls.bytes_read::.cpu.inst          42240                       # Number of bytes read from this memory
system.mem_ctrls.bytes_read::.cpu.data       17710912                       # Number of bytes read from this memory
system.mem_ctrls.bytes_read::total           17753152                       # Number of bytes read from this memory
system.mem_ctrls.bytes_inst_read::.cpu.inst        42240                       # Number of instructions bytes read from this memory
system.mem_ctrls.bytes_inst_read::total         42240                       # Number of instructions bytes read from this memory
system.mem_ctrls.bytes_written::.writebacks     12196992                       # Number of bytes written to this memory
system.mem_ctrls.bytes_written::total        12196992                       # Number of bytes written to this memory
system.mem_ctrls.num_reads::.cpu.inst             660                       # Number of read requests responded to by this memory
system.mem_ctrls.num_reads::.cpu.data          276733                       # Number of read requests responded to by this memory
system.mem_ctrls.num_reads::total              277393                       # Number of read requests responded to by this memory
system.mem_ctrls.num_writes::.writebacks       190578                       # Number of write requests responded to by this memory
system.mem_ctrls.num_writes::total             190578                       # Number of write requests responded to by this memory
system.mem_ctrls.bw_read::.cpu.inst            479202                       # Total read bandwidth from this memory (bytes/s)
system.mem_ctrls.bw_read::.cpu.data         200925579                       # Total read bandwidth from this memory (bytes/s)
system.mem_ctrls.bw_read::total             201404781                       # Total read bandwidth from this memory (bytes/s)
system.mem_ctrls.bw_inst_read::.cpu.inst       479202                       # Instruction read bandwidth from this memory (bytes/s)
system.mem_ctrls.bw_inst_read::total           479202                       # Instruction read bandwidth from this memory (bytes/s)
system.mem_ctrls.bw_write::.writebacks      138371626                       # Write bandwidth from this memory (bytes/s)
system.mem_ctrls.bw_write::total            138371626                       # Write bandwidth from this memory (bytes/s)
system.mem_ctrls.bw_total::.writebacks      138371626                       # Total bandwidth to/from this memory (bytes/s)
system.mem_ctrls.bw_total::.cpu.inst           479202                       # Total bandwidth to/from this memory (bytes/s)
system.mem_ctrls.bw_total::.cpu.data        200925579                       # Total bandwidth to/from this memory (bytes/s)
system.mem_ctrls.bw_total::total            339776407                       # Total bandwidth to/from this memory (bytes/s)
system.mem_ctrls.avgPriority_.writebacks::samples    190578.00                       # Average QoS priority value for accepted requests
system.mem_ctrls.avgPriority_.cpu.inst::samples       660.00                       # Average QoS priority value for accepted requests
system.mem_ctrls.avgPriority_.cpu.data::samples    276080.00                       # Average QoS priority value for accepted requests
system.mem_ctrls.priorityMinLatency      0.000000018750                       # per QoS priority minimum request to response latency (s)
system.mem_ctrls.priorityMaxLatency      0.010621562250                       # per QoS priority maximum request to response latency (s)
system.mem_ctrls.numReadWriteTurnArounds        11320                       # Number of turnarounds from READ to WRITE
system.mem_ctrls.numWriteReadTurnArounds        11320                       # Number of turnarounds from WRITE to READ
system.mem_ctrls.numStayReadState              752325                       # Number of times bus staying in READ state
system.mem_ctrls.numStayWriteState             179449                       # Number of times bus staying in WRITE state
system.mem_ctrls.readReqs                      277394                       # Number of read requests accepted
system.mem_ctrls.writeReqs                     190578                       # Number of write requests accepted
system.mem_ctrls.readBursts                    277394                       # Number of DRAM read bursts, including those serviced by the write queue
system.mem_ctrls.writeBursts                   190578                       # Number of DRAM write bursts, including those merged in the write queue
system.mem_ctrls.servicedByWrQ                    654                       # Number of DRAM read bursts serviced by the write queue
system.mem_ctrls.mergedWrBursts                     0                       # Number of DRAM write bursts merged with an existing one
system.mem_ctrls.neitherReadNorWriteReqs            0                       # Number of requests that are neither read nor write
system.mem_ctrls.perBankRdBursts::0             17895                       # Per bank write bursts
system.mem_ctrls.perBankRdBursts::1             17224                       # Per bank write bursts
system.mem_ctrls.perBankRdBursts::2             16989                       # Per bank write bursts
system.mem_ctrls.perBankRdBursts::3             17186                       # Per bank write bursts
system.mem_ctrls.perBankRdBursts::4             18043                       # Per bank write bursts
system.mem_ctrls.perBankRdBursts::5             17799                       # Per bank write bursts
system.mem_ctrls.perBankRdBursts::6             16482                       # Per bank write bursts
system.mem_ctrls.perBankRdBursts::7             17190                       # Per bank write bursts
system.mem_ctrls.perBankRdBursts::8             17379                       # Per bank write bursts
system.mem_ctrls.perBankRdBursts::9             17462                       # Per bank write bursts
system.mem_ctrls.perBankRdBursts::10            16697                       # Per bank write bursts
system.mem_ctrls.perBankRdBursts::11            16650                       # Per bank write bursts
system.mem_ctrls.perBankRdBursts::12            17682                       # Per bank write bursts
system.mem_ctrls.perBankRdBursts::13            17820                       # Per bank write bursts
system.mem_ctrls.perBankRdBursts::14            16862                       # Per bank write bursts
system.mem_ctrls.perBankRdBursts::15            17380                       # Per bank write bursts
system.mem_ctrls.perBankWrBursts::0             12265                       # Per bank write bursts
system.mem_ctrls.perBankWrBursts::1             11676                       # Per bank write bursts
system.mem_ctrls.perBankWrBursts::2             11537                       # Per bank write bursts
system.mem_ctrls.perBankWrBursts::3             11822                       # Per bank write bursts
system.mem_ctrls.perBankWrBursts::4             12901                       # Per bank write bursts
system.mem_ctrls.perBankWrBursts::5             12526                       # Per bank write bursts
system.mem_ctrls.perBankWrBursts::6             11135                       # Per bank write bursts
system.mem_ctrls.perBankWrBursts::7             11729                       # Per bank write bursts
system.mem_ctrls.perBankWrBursts::8             11929                       # Per bank write bursts
system.mem_ctrls.perBankWrBursts::9             12152                       # Per bank write bursts
system.mem_ctrls.perBankWrBursts::10            11489                       # Per bank write bursts
system.mem_ctrls.perBankWrBursts::11            11518                       # Per bank write bursts
system.mem_ctrls.perBankWrBursts::12            12258                       # Per bank write bursts
system.mem_ctrls.perBankWrBursts::13            12355                       # Per bank write bursts
system.mem_ctrls.perBankWrBursts::14            11330                       # Per bank write bursts
system.mem_ctrls.perBankWrBursts::15            11930                       # Per bank write bursts
system.mem_ctrls.avgRdQLen                       1.10                       # Average read queue length when enqueuing
system.mem_ctrls.avgWrQLen                      25.72                       # Average write queue length when enqueuing
system.mem_ctrls.totQLat                   4744580500                       # Total ticks spent queuing
system.mem_ctrls.totBusLat                 1383700000                       # Total ticks spent in databus transfers
system.mem_ctrls.totMemAccLat              9933455500                       # Total ticks spent from burst creation until serviced by the DRAM
system.mem_ctrls.avgQLat                     17144.54                       # Average queueing delay per DRAM burst
system.mem_ctrls.avgBusLat                    5000.00                       # Average bus latency per DRAM burst
system.mem_ctrls.avgMemAccLat                35894.54                       # Average memory access latency per DRAM burst
system.mem_ctrls.numRdRetry                         0                       # Number of times read queue was full causing retry
system.mem_ctrls.numWrRetry                         0                       # Number of times write queue was full causing retry
system.mem_ctrls.readRowHits                   154622                       # Number of row buffer hits during reads
system.mem_ctrls.writeRowHits                   98556                       # Number of row buffer hits during writes
system.mem_ctrls.readRowHitRate                 55.87                       # Row buffer hit rate for reads
system.mem_ctrls.writeRowHitRate                51.71                       # Row buffer hit rate for writes
system.mem_ctrls.readPktSize::0                     0                       # Read request sizes (log2)
system.mem_ctrls.readPktSize::1                     0                       # Read request sizes (log2)
system.mem_ctrls.readPktSize::2                     0                       # Read request sizes (log2)
system.mem_ctrls.readPktSize::3                     0                       # Read request sizes (log2)
system.mem_ctrls.readPktSize::4                     0                       # Read request sizes (log2)
system.mem_ctrls.readPktSize::5                     0                       # Read request sizes (log2)
system.mem_ctrls.readPktSize::6                277394                       # Read request sizes (log2)
system.mem_ctrls.writePktSize::0                    0                       # Write request sizes (log2)
system.mem_ctrls.writePktSize::1                    0                       # Write request sizes (log2)
system.mem_ctrls.writePktSize::2                    0                       # Write request sizes (log2)
system.mem_ctrls.writePktSize::3                    0                       # Write request sizes (log2)
system.mem_ctrls.writePktSize::4                    0                       # Write request sizes (log2)
system.mem_ctrls.writePktSize::5                    0                       # Write request sizes (log2)
system.mem_ctrls.writePktSize::6               190578                       # Write request sizes (log2)
system.mem_ctrls.rdQLenPdf::0                  206298                       # What read queue length does an incoming req see
system.mem_ctrls.rdQLenPdf::1                   66897                       # What read queue length does an incoming req see
system.mem_ctrls.rdQLenPdf::2                    3088                       # What read queue length does an incoming req see
system.mem_ctrls.rdQLenPdf::3                     456                       # What read queue length does an incoming req see
system.mem_ctrls.rdQLenPdf::4                       1                       # What read queue length does an incoming req see
system.mem_ctrls.rdQLenPdf::5                       0                       # What read queue length does an incoming req see
system.mem_ctrls.rdQLenPdf::6                       0                       # What read queue length does an incoming req see
system.mem_ctrls.rdQLenPdf::7                       0                       # What read queue length does an incoming req see
system.mem_ctrls.rdQLenPdf::8                       0                       # What read queue length does an incoming req see
system.mem_ctrls.rdQLenPdf::9                       0                       # What read queue length does an incoming req see
system.mem_ctrls.rdQLenPdf::10                      0                       # What read queue length does an incoming req see
system.mem_ctrls.rdQLenPdf::11                      0                       # What read queue length does an incoming req see
system.mem_ctrls.rdQLenPdf::12                      0                       # What read queue length does an incoming req see
system.mem_ctrls.rdQLenPdf::13                      0                       # What read queue length does an incoming req see
system.mem_ctrls.rdQLenPdf::14                      0                       # What read queue length does an incoming req see
system.mem_ctrls.rdQLenPdf::15                      0                       # What read queue length does an incoming req see
system.mem_ctrls.rdQLenPdf::16                      0                       # What read queue length does an incoming req see
system.mem_ctrls.rdQLenPdf::17                      0                       # What read queue length does an incoming req see
system.mem_ctrls.rdQLenPdf::18                      0                       # What read queue length does an incoming req see
system.mem_ctrls.rdQLenPdf::19                      0                       # What read queue length does an incoming req see
system.mem_ctrls.rdQLenPdf::20                      0                       # What read queue length does an incoming req see
system.mem_ctrls.rdQLenPdf::21                      0                       # What read queue length does an incoming req see
system.mem_ctrls.rdQLenPdf::22                      0                       # What read queue length does an incoming req see
system.mem_ctrls.rdQLenPdf::23                      0                       # What read queue length does an incoming req see
system.mem_ctrls.rdQLenPdf::24                      0                       # What read queue length does an incoming req see
system.mem_ctrls.rdQLenPdf::25                      0                       # What read queue length does an incoming req see
system.mem_ctrls.rdQLenPdf::26                      0                       # What read queue length does an incoming req see
system.mem_ctrls.rdQLenPdf::27                      0                       # What read queue length does an incoming req see
system.mem_ctrls.rdQLenPdf::28                      0                       # What read queue length does an incoming req see
system.mem_ctrls.rdQLenPdf::29                      0                       # What read queue length does an incoming req see
system.mem_ctrls.rdQLenPdf::30                      0                       # What read queue length does an incoming req see
system.mem_ctrls.rdQLenPdf::31                      0                       # What read queue length does an incoming req see
system.mem_ctrls.wrQLenPdf::0                       1                       # What write queue length does an incoming req see
system.mem_ctrls.wrQLenPdf::1                       1                       # What write queue length does an incoming req see
system.mem_ctrls.wrQLenPdf::2                       1                       # What write queue length does an incoming req see
system.mem_ctrls.wrQLenPdf::3                       1                       # What write queue length does an incoming req see
system.mem_ctrls.wrQLenPdf::4                       1                       # What write queue length does an incoming req see
system.mem_ctrls.wrQLenPdf::5                       1                       # What write queue length does an incoming req see
system.mem_ctrls.wrQLenPdf::6                       1                       # What write queue length does an incoming req see
system.mem_ctrls.wrQLenPdf::7                       1                       # What write queue length does an incoming req see
system.mem_ctrls.wrQLenPdf::8                       1                       # What write queue length does an incoming req see
system.mem_ctrls.wrQLenPdf::9                       1                       # What write queue length does an incoming req see
system.mem_ctrls.wrQLenPdf::10                      1                       # What write queue length does an incoming req see
system.mem_ctrls.wrQLenPdf::11                      1                       # What write queue length does an incoming req see
system.mem_ctrls.wrQLenPdf::12                      1                       # What write queue length does an incoming req see
system.mem_ctrls.wrQLenPdf::13                      1                       # What write queue length does an incoming req see
system.mem_ctrls.wrQLenPdf::14                      1                       # What write queue length does an incoming req see
system.mem_ctrls.wrQLenPdf::15                   4363                       # What write queue length does an incoming req see
system.mem_ctrls.wrQLenPdf::16                   4477                       # What write queue length does an incoming req see
system.mem_ctrls.wrQLenPdf::17                  10455                       # What write queue length does an incoming req see
system.mem_ctrls.wrQLenPdf::18                  11471                       # What write queue length does an incoming req see
system.mem_ctrls.wrQLenPdf::19                  11442                       # What write queue length does an incoming req see
system.mem_ctrls.wrQLenPdf::20                  11537                       # What write queue length does an incoming req see
system.mem_ctrls.wrQLenPdf::21                  11414                       # What write queue length does an incoming req see
system.mem_ctrls.wrQLenPdf::22                  11430                       # What write queue length does an incoming req see
system.mem_ctrls.wrQLenPdf::23                  11420                       # What write queue length does an incoming req see
system.mem_ctrls.wrQLenPdf::24                  11465                       # What write queue length does an incoming req see
system.mem_ctrls.wrQLenPdf::25                  11509                       # What write queue length does an incoming req see
system.mem_ctrls.wrQLenPdf::26                  11404                       # What write queue length does an incoming req see
system.mem_ctrls.wrQLenPdf::27                  11391                       # What write queue length does an incoming req see
system.mem_ctrls.wrQLenPdf::28                  11437                       # What write queue length does an incoming req see
system.mem_ctrls.wrQLenPdf::29                  11371                       # What write queue length does an incoming req see
system.mem_ctrls.wrQLenPdf::30                  11325                       # What write queue length does an incoming req see
system.mem_ctrls.wrQLenPdf::31                  11322                       # What write queue length does an incoming req see
system.mem_ctrls.wrQLenPdf::32                  11320                       # What write queue length does an incoming req see
system.mem_ctrls.wrQLenPdf::33                     10                       # What write queue length does an incoming req see
system.mem_ctrls.wrQLenPdf::34                      0                       # What write queue length does an incoming req see
system.mem_ctrls.wrQLenPdf::35                      0                       # What write queue length does an incoming req see
system.mem_ctrls.wrQLenPdf::36                      0                       # What write queue length does an incoming req see
system.mem_ctrls.wrQLenPdf::37                      0                       # What write queue length does an incoming req see
system.mem_ctrls.wrQLenPdf::38                      0                       # What write queue length does an incoming req see
system.mem_ctrls.wrQLenPdf::39                      0                       # What write queue length does an incoming req see
system.mem_ctrls.wrQLenPdf::40                      0                       # What write queue length does an incoming req see
system.mem_ctrls.wrQLenPdf::41                      0                       # What write queue length does an incoming req see
system.mem_ctrls.wrQLenPdf::42                      0                       # What write queue length does an incoming req see
system.mem_ctrls.wrQLenPdf::43                      0                       # What write queue length does an incoming req see
system.mem_ctrls.wrQLenPdf::44                      0                       # What write queue length does an incoming req see
system.mem_ctrls.wrQLenPdf::45                      0                       # What write queue length does an incoming req see
system.mem_ctrls.wrQLenPdf::46                      0                       # What write queue length does an incoming req see
system.mem_ctrls.wrQLenPdf::47                      0                       # What write queue length does an incoming req see
system.mem_ctrls.wrQLenPdf::48                      0                       # What write queue length does an incoming req see
system.mem_ctrls.wrQLenPdf::49                      0                       # What write queue length does an incoming req see
system.mem_ctrls.wrQLenPdf::50                      0                       # What write queue length does an incoming req see
system.mem_ctrls.wrQLenPdf::51                      0                       # What write queue length does an incoming req see
system.mem_ctrls.wrQLenPdf::52                      0                       # What write queue length does an incoming req see
system.mem_ctrls.wrQLenPdf::53                      0                       # What write queue length does an incoming req see
system.mem_ctrls.wrQLenPdf::54                      0                       # What write queue length does an incoming req see
system.mem_ctrls.wrQLenPdf::55                      0                       # What write queue length does an incoming req see
system.mem_ctrls.wrQLenPdf::56                      0                       # What write queue length does an incoming req see
system.mem_ctrls.wrQLenPdf::57                      0                       # What write queue length does an incoming req see
system.mem_ctrls.wrQLenPdf::58                      0                       # What write queue length does an incoming req see
system.mem_ctrls.wrQLenPdf::59                      0                       # What write queue length does an incoming req see
system.mem_ctrls.wrQLenPdf::60                      0                       # What write queue length does an incoming req see
system.mem_ctrls.wrQLenPdf::61                      0                       # What write queue length does an incoming req see
system.mem_ctrls.wrQLenPdf::62                      0                       # What write queue length does an incoming req see
system.mem_ctrls.wrQLenPdf::63                      0                       # What write queue length does an incoming req see
system.mem_ctrls.bytesPerActivate::samples       214102                       # Bytes accessed per row activation
system.mem_ctrls.bytesPerActivate::mean    139.680414                       # Bytes accessed per row activation
system.mem_ctrls.bytesPerActivate::gmean    92.061773                       # Bytes accessed per row activation
system.mem_ctrls.bytesPerActivate::stdev   199.459651                       # Bytes accessed per row activation
system.mem_ctrls.bytesPerActivate::0-127       158255     73.92%     73.92% # Bytes accessed per row activation
system.mem_ctrls.bytesPerActivate::128-255        30812     14.39%     88.31% # Bytes accessed per row activation
system.mem_ctrls.bytesPerActivate::256-383         4367      2.04%     90.35% # Bytes accessed per row activation
system.mem_ctrls.bytesPerActivate::384-511         2184      1.02%     91.37% # Bytes accessed per row activation
system.mem_ctrls.bytesPerActivate::512-639        10076      4.71%     96.07% # Bytes accessed per row activation
system.mem_ctrls.bytesPerActivate::640-767          670      0.31%     96.39% # Bytes accessed per row activation
system.mem_ctrls.bytesPerActivate::768-895          803      0.38%     96.76% # Bytes accessed per row activation
system.mem_ctrls.bytesPerActivate::896-1023          436      0.20%     96.96% # Bytes accessed per row activation
system.mem_ctrls.bytesPerActivate::1024-1151         6499      3.04%    100.00% # Bytes accessed per row activation
system.mem_ctrls.bytesPerActivate::total       214102                       # Bytes accessed per row activation
system.mem_ctrls.rdPerTurnAround::samples        11320                       # Reads before turning the bus around for writes
system.mem_ctrls.rdPerTurnAround::mean      24.446201                       # Reads before turning the bus around for writes
system.mem_ctrls.rdPerTurnAround::gmean     21.850491                       # Reads before turning the bus around for writes
system.mem_ctrls.rdPerTurnAround::stdev     36.183756                       # Reads before turning the bus around for writes
system.mem_ctrls.rdPerTurnAround::0-63          11194     98.89%     98.89% # Reads before turning the bus around for writes
system.mem_ctrls.rdPerTurnAround::64-127           69      0.61%     99.50% # Reads before turning the bus around for writes
system.mem_ctrls.rdPerTurnAround::128-191            8      0.07%     99.57% # Reads before turning the bus around for writes
system.mem_ctrls.rdPerTurnAround::192-255            6      0.05%     99.62% # Reads before turning the bus around for writes
system.mem_ctrls.rdPerTurnAround::256-319           27      0.24%     99.86% # Reads before turning the bus around for writes
[...]
system.cpu.icache.ReadReq_avg_miss_latency::total 77056.916427                       # average ReadReq miss latency
system.cpu.icache.ReadReq_mshr_misses::.cpu.inst          694                       # number of ReadReq MSHR misses
system.cpu.icache.ReadReq_mshr_misses::total          694                       # number of ReadReq MSHR misses
system.cpu.icache.ReadReq_mshr_miss_latency::.cpu.inst     52783500                       # number of ReadReq MSHR miss cycles
system.cpu.icache.ReadReq_mshr_miss_latency::total     52783500                       # number of ReadReq MSHR miss cycles
system.cpu.icache.ReadReq_mshr_miss_rate::.cpu.inst     0.000072                       # mshr miss rate for ReadReq accesses
system.cpu.icache.ReadReq_mshr_miss_rate::total     0.000072                       # mshr miss rate for ReadReq accesses
system.cpu.icache.ReadReq_avg_mshr_miss_latency::.cpu.inst 76056.916427                       # average ReadReq mshr miss latency
system.cpu.icache.ReadReq_avg_mshr_miss_latency::total 76056.916427                       # average ReadReq mshr miss latency
system.cpu.icache.tags.pwrStateResidencyTicks::UNDEFINED  88146626500                       # Cumulative time (in ticks) in various power states
system.cpu.icache.tags.tagsinuse           464.736496                       # Cycle average of tags in use
system.cpu.icache.tags.total_refs             9663499                       # Total number of references to valid blocks.
system.cpu.icache.tags.sampled_refs               694                       # Sample count of references to valid blocks.
system.cpu.icache.tags.avg_refs          13924.350144                       # Average number of references to valid blocks.
system.cpu.icache.tags.warmup_cycle             87500                       # Cycle when the warmup percentage was hit.
system.cpu.icache.tags.occ_blocks::.cpu.inst   464.736496                       # Average occupied blocks per requestor
system.cpu.icache.tags.occ_percent::.cpu.inst     0.453844                       # Average percentage of cache occupancy
system.cpu.icache.tags.occ_percent::total     0.453844                       # Average percentage of cache occupancy
system.cpu.icache.tags.occ_task_id_blocks::1024          577                       # Occupied blocks per task id
system.cpu.icache.tags.age_task_id_blocks_1024::3          106                       # Occupied blocks per task id
system.cpu.icache.tags.age_task_id_blocks_1024::4          471                       # Occupied blocks per task id
system.cpu.icache.tags.occ_task_id_percent::1024     0.563477                       # Percentage of cache occupancy per task id
system.cpu.icache.tags.tag_accesses          19327692                       # Number of tag accesses
system.cpu.icache.tags.data_accesses         19327692                       # Number of data accesses
system.cpu.dtb.walker.pwrStateResidencyTicks::UNDEFINED  88146626500                       # Cumulative time (in ticks) in various power states
system.cpu.dtb.stage2_mmu.stage2_tlb.walker.pwrStateResidencyTicks::UNDEFINED  88146626500                       # Cumulative time (in ticks) in various power states
system.cpu.dcache.pwrStateResidencyTicks::UNDEFINED  88146626500                       # Cumulative time (in ticks) in various power states
system.cpu.dcache.demand_hits::.cpu.data     51315342                       # number of demand (read+write) hits
system.cpu.dcache.demand_hits::total         51315342                       # number of demand (read+write) hits
system.cpu.dcache.overall_hits::.cpu.data     51315850                       # number of overall hits
system.cpu.dcache.overall_hits::total        51315850                       # number of overall hits
system.cpu.dcache.demand_misses::.cpu.data       762302                       # number of demand (read+write) misses
system.cpu.dcache.demand_misses::total         762302                       # number of demand (read+write) misses
system.cpu.dcache.overall_misses::.cpu.data       770213                       # number of overall misses
system.cpu.dcache.overall_misses::total        770213                       # number of overall misses
system.cpu.dcache.demand_miss_latency::.cpu.data  31458080000                       # number of demand (read+write) miss cycles
system.cpu.dcache.demand_miss_latency::total  31458080000                       # number of demand (read+write) miss cycles
system.cpu.dcache.overall_miss_latency::.cpu.data  31458080000                       # number of overall miss cycles
system.cpu.dcache.overall_miss_latency::total  31458080000                       # number of overall miss cycles
system.cpu.dcache.demand_accesses::.cpu.data     52077644                       # number of demand (read+write) accesses
system.cpu.dcache.demand_accesses::total     52077644                       # number of demand (read+write) accesses
system.cpu.dcache.overall_accesses::.cpu.data     52086063                       # number of overall (read+write) accesses
system.cpu.dcache.overall_accesses::total     52086063                       # number of overall (read+write) accesses
system.cpu.dcache.demand_miss_rate::.cpu.data     0.014638                       # miss rate for demand accesses
system.cpu.dcache.demand_miss_rate::total     0.014638                       # miss rate for demand accesses
system.cpu.dcache.overall_miss_rate::.cpu.data     0.014787                       # miss rate for overall accesses
system.cpu.dcache.overall_miss_rate::total     0.014787                       # miss rate for overall accesses
system.cpu.dcache.demand_avg_miss_latency::.cpu.data 41267.214306                       # average overall miss latency
system.cpu.dcache.demand_avg_miss_latency::total 41267.214306                       # average overall miss latency
system.cpu.dcache.overall_avg_miss_latency::.cpu.data 40843.351125                       # average overall miss latency
system.cpu.dcache.overall_avg_miss_latency::total 40843.351125                       # average overall miss latency
system.cpu.dcache.blocked_cycles::no_mshrs       195809                       # number of cycles access was blocked
system.cpu.dcache.blocked_cycles::no_targets            0                       # number of cycles access was blocked
system.cpu.dcache.blocked::no_mshrs              3234                       # number of cycles access was blocked
system.cpu.dcache.blocked::no_targets               0                       # number of cycles access was blocked
system.cpu.dcache.avg_blocked_cycles::no_mshrs    60.547001                       # average number of cycles each access was blocked
system.cpu.dcache.avg_blocked_cycles::no_targets          nan                       # average number of cycles each access was blocked
system.cpu.dcache.writebacks::.writebacks       616290                       # number of writebacks
system.cpu.dcache.writebacks::total            616290                       # number of writebacks
system.cpu.dcache.demand_mshr_hits::.cpu.data        58628                       # number of demand (read+write) MSHR hits
system.cpu.dcache.demand_mshr_hits::total        58628                       # number of demand (read+write) MSHR hits
system.cpu.dcache.overall_mshr_hits::.cpu.data        58628                       # number of overall MSHR hits
system.cpu.dcache.overall_mshr_hits::total        58628                       # number of overall MSHR hits
system.cpu.dcache.demand_mshr_misses::.cpu.data       703674                       # number of demand (read+write) MSHR misses
system.cpu.dcache.demand_mshr_misses::total       703674                       # number of demand (read+write) MSHR misses
system.cpu.dcache.overall_mshr_misses::.cpu.data       711580                       # number of overall MSHR misses
system.cpu.dcache.overall_mshr_misses::total       711580                       # number of overall MSHR misses
system.cpu.dcache.demand_mshr_miss_latency::.cpu.data  29130656500                       # number of demand (read+write) MSHR miss cycles
system.cpu.dcache.demand_mshr_miss_latency::total  29130656500                       # number of demand (read+write) MSHR miss cycles
system.cpu.dcache.overall_mshr_miss_latency::.cpu.data  29732675499                       # number of overall MSHR miss cycles
system.cpu.dcache.overall_mshr_miss_latency::total  29732675499                       # number of overall MSHR miss cycles
system.cpu.dcache.demand_mshr_miss_rate::.cpu.data     0.013512                       # mshr miss rate for demand accesses
system.cpu.dcache.demand_mshr_miss_rate::total     0.013512                       # mshr miss rate for demand accesses
system.cpu.dcache.overall_mshr_miss_rate::.cpu.data     0.013662                       # mshr miss rate for overall accesses
system.cpu.dcache.overall_mshr_miss_rate::total     0.013662                       # mshr miss rate for overall accesses
system.cpu.dcache.demand_avg_mshr_miss_latency::.cpu.data 41397.943508                       # average overall mshr miss latency
system.cpu.dcache.demand_avg_mshr_miss_latency::total 41397.943508                       # average overall mshr miss latency
system.cpu.dcache.overall_avg_mshr_miss_latency::.cpu.data 41784.023580                       # average overall mshr miss latency
system.cpu.dcache.overall_avg_mshr_miss_latency::total 41784.023580                       # average overall mshr miss latency
system.cpu.dcache.replacements                 710555                       # number of replacements
system.cpu.dcache.ReadReq_hits::.cpu.data     40710194                       # number of ReadReq hits
system.cpu.dcache.ReadReq_hits::total        40710194                       # number of ReadReq hits
system.cpu.dcache.ReadReq_misses::.cpu.data       417349                       # number of ReadReq misses
system.cpu.dcache.ReadReq_misses::total        417349                       # number of ReadReq misses
system.cpu.dcache.ReadReq_miss_latency::.cpu.data  12786994000                       # number of ReadReq miss cycles
system.cpu.dcache.ReadReq_miss_latency::total  12786994000                       # number of ReadReq miss cycles
system.cpu.dcache.ReadReq_accesses::.cpu.data     41127543                       # number of ReadReq accesses(hits+misses)
system.cpu.dcache.ReadReq_accesses::total     41127543                       # number of ReadReq accesses(hits+misses)
system.cpu.dcache.ReadReq_miss_rate::.cpu.data     0.010148                       # miss rate for ReadReq accesses
system.cpu.dcache.ReadReq_miss_rate::total     0.010148                       # miss rate for ReadReq accesses
system.cpu.dcache.ReadReq_avg_miss_latency::.cpu.data 30638.611809                       # average ReadReq miss latency
system.cpu.dcache.ReadReq_avg_miss_latency::total 30638.611809                       # average ReadReq miss latency
system.cpu.dcache.ReadReq_mshr_hits::.cpu.data           11                       # number of ReadReq MSHR hits
system.cpu.dcache.ReadReq_mshr_hits::total           11                       # number of ReadReq MSHR hits
system.cpu.dcache.ReadReq_mshr_misses::.cpu.data       417338                       # number of ReadReq MSHR misses
system.cpu.dcache.ReadReq_mshr_misses::total       417338                       # number of ReadReq MSHR misses
system.cpu.dcache.ReadReq_mshr_miss_latency::.cpu.data  12368617000                       # number of ReadReq MSHR miss cycles
system.cpu.dcache.ReadReq_mshr_miss_latency::total  12368617000                       # number of ReadReq MSHR miss cycles
system.cpu.dcache.ReadReq_mshr_miss_rate::.cpu.data     0.010147                       # mshr miss rate for ReadReq accesses
system.cpu.dcache.ReadReq_mshr_miss_rate::total     0.010147                       # mshr miss rate for ReadReq accesses
system.cpu.dcache.ReadReq_avg_mshr_miss_latency::.cpu.data 29636.929779                       # average ReadReq mshr miss latency
system.cpu.dcache.ReadReq_avg_mshr_miss_latency::total 29636.929779                       # average ReadReq mshr miss latency
system.cpu.dcache.WriteReq_hits::.cpu.data     10605148                       # number of WriteReq hits
system.cpu.dcache.WriteReq_hits::total       10605148                       # number of WriteReq hits
system.cpu.dcache.WriteReq_misses::.cpu.data       344953                       # number of WriteReq misses
system.cpu.dcache.WriteReq_misses::total       344953                       # number of WriteReq misses
system.cpu.dcache.WriteReq_miss_latency::.cpu.data  18671086000                       # number of WriteReq miss cycles
system.cpu.dcache.WriteReq_miss_latency::total  18671086000                       # number of WriteReq miss cycles
system.cpu.dcache.WriteReq_accesses::.cpu.data     10950101                       # number of WriteReq accesses(hits+misses)
system.cpu.dcache.WriteReq_accesses::total     10950101                       # number of WriteReq accesses(hits+misses)
system.cpu.dcache.WriteReq_miss_rate::.cpu.data     0.031502                       # miss rate for WriteReq accesses
system.cpu.dcache.WriteReq_miss_rate::total     0.031502                       # miss rate for WriteReq accesses
system.cpu.dcache.WriteReq_avg_miss_latency::.cpu.data 54126.463605                       # average WriteReq miss latency
system.cpu.dcache.WriteReq_avg_miss_latency::total 54126.463605                       # average WriteReq miss latency
system.cpu.dcache.WriteReq_mshr_hits::.cpu.data        58617                       # number of WriteReq MSHR hits
system.cpu.dcache.WriteReq_mshr_hits::total        58617                       # number of WriteReq MSHR hits
system.cpu.dcache.WriteReq_mshr_misses::.cpu.data       286336                       # number of WriteReq MSHR misses
system.cpu.dcache.WriteReq_mshr_misses::total       286336                       # number of WriteReq MSHR misses
system.cpu.dcache.WriteReq_mshr_miss_latency::.cpu.data  16762039500                       # number of WriteReq MSHR miss cycles
system.cpu.dcache.WriteReq_mshr_miss_latency::total  16762039500                       # number of WriteReq MSHR miss cycles
system.cpu.dcache.WriteReq_mshr_miss_rate::.cpu.data     0.026149                       # mshr miss rate for WriteReq accesses
system.cpu.dcache.WriteReq_mshr_miss_rate::total     0.026149                       # mshr miss rate for WriteReq accesses
system.cpu.dcache.WriteReq_avg_mshr_miss_latency::.cpu.data 58539.755742                       # average WriteReq mshr miss latency
system.cpu.dcache.WriteReq_avg_mshr_miss_latency::total 58539.755742                       # average WriteReq mshr miss latency
system.cpu.dcache.SoftPFReq_hits::.cpu.data          508                       # number of SoftPFReq hits
system.cpu.dcache.SoftPFReq_hits::total           508                       # number of SoftPFReq hits
system.cpu.dcache.SoftPFReq_misses::.cpu.data         7911                       # number of SoftPFReq misses
system.cpu.dcache.SoftPFReq_misses::total         7911                       # number of SoftPFReq misses
system.cpu.dcache.SoftPFReq_accesses::.cpu.data         8419                       # number of SoftPFReq accesses(hits+misses)
system.cpu.dcache.SoftPFReq_accesses::total         8419                       # number of SoftPFReq accesses(hits+misses)
system.cpu.dcache.SoftPFReq_miss_rate::.cpu.data     0.939660                       # miss rate for SoftPFReq accesses
system.cpu.dcache.SoftPFReq_miss_rate::total     0.939660                       # miss rate for SoftPFReq accesses
system.cpu.dcache.SoftPFReq_mshr_misses::.cpu.data         7906                       # number of SoftPFReq MSHR misses
system.cpu.dcache.SoftPFReq_mshr_misses::total         7906                       # number of SoftPFReq MSHR misses
system.cpu.dcache.SoftPFReq_mshr_miss_latency::.cpu.data    602018999                       # number of SoftPFReq MSHR miss cycles
system.cpu.dcache.SoftPFReq_mshr_miss_latency::total    602018999                       # number of SoftPFReq MSHR miss cycles
system.cpu.dcache.SoftPFReq_mshr_miss_rate::.cpu.data     0.939066                       # mshr miss rate for SoftPFReq accesses
system.cpu.dcache.SoftPFReq_mshr_miss_rate::total     0.939066                       # mshr miss rate for SoftPFReq accesses
system.cpu.dcache.SoftPFReq_avg_mshr_miss_latency::.cpu.data 76147.103339                       # average SoftPFReq mshr miss latency
system.cpu.dcache.SoftPFReq_avg_mshr_miss_latency::total 76147.103339                       # average SoftPFReq mshr miss latency
system.cpu.dcache.LoadLockedReq_hits::.cpu.data           38                       # number of LoadLockedReq hits
system.cpu.dcache.LoadLockedReq_hits::total           38                       # number of LoadLockedReq hits
system.cpu.dcache.LoadLockedReq_accesses::.cpu.data           38                       # number of LoadLockedReq accesses(hits+misses)
system.cpu.dcache.LoadLockedReq_accesses::total           38                       # number of LoadLockedReq accesses(hits+misses)
system.cpu.dcache.StoreCondReq_hits::.cpu.data           38                       # number of StoreCondReq hits
system.cpu.dcache.StoreCondReq_hits::total           38                       # number of StoreCondReq hits
system.cpu.dcache.StoreCondReq_accesses::.cpu.data           38                       # number of StoreCondReq accesses(hits+misses)
system.cpu.dcache.StoreCondReq_accesses::total           38                       # number of StoreCondReq accesses(hits+misses)
system.cpu.dcache.tags.pwrStateResidencyTicks::UNDEFINED  88146626500                       # Cumulative time (in ticks) in various power states
system.cpu.dcache.tags.tagsinuse          1008.794554                       # Cycle average of tags in use
system.cpu.dcache.tags.total_refs            52027505                       # Total number of references to valid blocks.
system.cpu.dcache.tags.sampled_refs            711579                       # Sample count of references to valid blocks.
system.cpu.dcache.tags.avg_refs             73.115571                       # Average number of references to valid blocks.
system.cpu.dcache.tags.warmup_cycle            176500                       # Cycle when the warmup percentage was hit.
system.cpu.dcache.tags.occ_blocks::.cpu.data  1008.794554                       # Average occupied blocks per requestor
system.cpu.dcache.tags.occ_percent::.cpu.data     0.985151                       # Average percentage of cache occupancy
system.cpu.dcache.tags.occ_percent::total     0.985151                       # Average percentage of cache occupancy
system.cpu.dcache.tags.occ_task_id_blocks::1024         1024                       # Occupied blocks per task id
system.cpu.dcache.tags.age_task_id_blocks_1024::0          167                       # Occupied blocks per task id
system.cpu.dcache.tags.age_task_id_blocks_1024::1          358                       # Occupied blocks per task id
system.cpu.dcache.tags.age_task_id_blocks_1024::2          497                       # Occupied blocks per task id
system.cpu.dcache.tags.age_task_id_blocks_1024::3            2                       # Occupied blocks per task id
system.cpu.dcache.tags.occ_task_id_percent::1024            1                       # Percentage of cache occupancy per task id
system.cpu.dcache.tags.tag_accesses         104883857                       # Number of tag accesses
system.cpu.dcache.tags.data_accesses        104883857                       # Number of data accesses
system.cpu.itb.walker.pwrStateResidencyTicks::UNDEFINED  88146626500                       # Cumulative time (in ticks) in various power states
system.cpu.itb.stage2_mmu.stage2_tlb.walker.pwrStateResidencyTicks::UNDEFINED  88146626500                       # Cumulative time (in ticks) in various power states

---------- End Simulation Statistics   ----------
